data/nesta/api/nesta_case118_ieee__api.m
%%%%%%%%%%%%%%%%%%%%%%%%%%%%%%%%%%%%%%%%%%%%%%%%%%%%%%%%%%%%%%%%%%%%%%%%%%%
%%%%                                                                  %%%%%
%%%%      NICTA Energy System Test Case Archive (NESTA) - v0.1.5      %%%%%
%%%%            Optimal Power Flow - Active Power Increase            %%%%%
%%%%                       30 - October - 2014                        %%%%%
%%%%                                                                  %%%%%
%%%%%%%%%%%%%%%%%%%%%%%%%%%%%%%%%%%%%%%%%%%%%%%%%%%%%%%%%%%%%%%%%%%%%%%%%%%
function mpc = nesta_case118_ieee__api
mpc.version = '2';
mpc.baseMVA = 100.0;

%% bus data
%	bus_i	type	Pd	Qd	Gs	Bs	area	Vm	Va	baseKV	zone	Vmax	Vmin
mpc.bus = [
	1	 2	 84.97	 27.00	 0.0	 0.0	 1	     0.9550	    10.6700	 138.0	 1	     1.0600	     0.9400;
	2	 1	 33.32	 9.00	 0.0	 0.0	 1	     0.9710	    11.2200	 138.0	 1	     1.0600	     0.9400;
	3	 1	 64.98	 10.00	 0.0	 0.0	 1	     0.9680	    11.5600	 138.0	 1	     1.0600	     0.9400;
	4	 2	 64.98	 12.00	 0.0	 0.0	 1	     0.9980	    15.2800	 138.0	 1	     1.0600	     0.9400;
	5	 1	 0.00	 0.00	 0.0	 -40.0	 1	     1.0020	    15.7300	 138.0	 1	     1.0600	     0.9400;
	6	 2	 86.63	 22.00	 0.0	 0.0	 1	     0.9900	    13.0000	 138.0	 1	     1.0600	     0.9400;
	7	 1	 31.66	 2.00	 0.0	 0.0	 1	     0.9890	    12.5600	 138.0	 1	     1.0600	     0.9400;
	8	 2	 28.00	 0.00	 0.0	 0.0	 1	     1.0150	    20.7700	 345.0	 1	     1.0600	     0.9400;
	9	 1	 0.00	 0.00	 0.0	 0.0	 1	     1.0430	    28.0200	 345.0	 1	     1.0600	     0.9400;
	10	 2	 0.00	 0.00	 0.0	 0.0	 1	     1.0500	    35.6100	 345.0	 1	     1.0600	     0.9400;
	11	 1	 116.62	 23.00	 0.0	 0.0	 1	     0.9850	    12.7200	 138.0	 1	     1.0600	     0.9400;
	12	 2	 78.30	 10.00	 0.0	 0.0	 1	     0.9900	    12.2000	 138.0	 1	     1.0600	     0.9400;
	13	 1	 56.65	 16.00	 0.0	 0.0	 1	     0.9680	    11.3500	 138.0	 1	     1.0600	     0.9400;
	14	 1	 23.32	 1.00	 0.0	 0.0	 1	     0.9840	    11.5000	 138.0	 1	     1.0600	     0.9400;
	15	 2	 149.94	 30.00	 0.0	 0.0	 1	     0.9700	    11.2300	 138.0	 1	     1.0600	     0.9400;
	16	 1	 41.65	 10.00	 0.0	 0.0	 1	     0.9840	    11.9100	 138.0	 1	     1.0600	     0.9400;
	17	 1	 18.33	 3.00	 0.0	 0.0	 1	     0.9950	    13.7400	 138.0	 1	     1.0600	     0.9400;
	18	 2	 99.96	 34.00	 0.0	 0.0	 1	     0.9730	    11.5300	 138.0	 1	     1.0600	     0.9400;
	19	 2	 74.97	 25.00	 0.0	 0.0	 1	     0.9630	    11.0500	 138.0	 1	     1.0600	     0.9400;
	20	 1	 29.99	 3.00	 0.0	 0.0	 1	     0.9580	    11.9300	 138.0	 1	     1.0600	     0.9400;
	21	 1	 23.32	 8.00	 0.0	 0.0	 1	     0.9590	    13.5200	 138.0	 1	     1.0600	     0.9400;
	22	 1	 16.66	 5.00	 0.0	 0.0	 1	     0.9700	    16.0800	 138.0	 1	     1.0600	     0.9400;
	23	 1	 11.66	 3.00	 0.0	 0.0	 1	     1.0000	    21.0000	 138.0	 1	     1.0600	     0.9400;
	24	 2	 13.00	 0.00	 0.0	 0.0	 1	     0.9920	    20.8900	 138.0	 1	     1.0600	     0.9400;
	25	 2	 0.00	 0.00	 0.0	 0.0	 1	     1.0500	    27.9300	 138.0	 1	     1.0600	     0.9400;
	26	 2	 0.00	 0.00	 0.0	 0.0	 1	     1.0150	    29.7100	 345.0	 1	     1.0600	     0.9400;
	27	 2	 118.29	 13.00	 0.0	 0.0	 1	     0.9680	    15.3500	 138.0	 1	     1.0600	     0.9400;
	28	 1	 28.32	 7.00	 0.0	 0.0	 1	     0.9620	    13.6200	 138.0	 1	     1.0600	     0.9400;
	29	 1	 39.99	 4.00	 0.0	 0.0	 1	     0.9630	    12.6300	 138.0	 1	     1.0600	     0.9400;
	30	 1	 0.00	 0.00	 0.0	 0.0	 1	     0.9680	    18.7900	 345.0	 1	     1.0600	     0.9400;
	31	 2	 71.64	 27.00	 0.0	 0.0	 1	     0.9670	    12.7500	 138.0	 1	     1.0600	     0.9400;
	32	 2	 98.30	 23.00	 0.0	 0.0	 1	     0.9640	    14.8000	 138.0	 1	     1.0600	     0.9400;
	33	 1	 38.32	 9.00	 0.0	 0.0	 1	     0.9720	    10.6300	 138.0	 1	     1.0600	     0.9400;
	34	 2	 98.30	 26.00	 0.0	 14.0	 1	     0.9860	    11.3000	 138.0	 1	     1.0600	     0.9400;
	35	 1	 54.98	 9.00	 0.0	 0.0	 1	     0.9810	    10.8700	 138.0	 1	     1.0600	     0.9400;
	36	 2	 51.65	 17.00	 0.0	 0.0	 1	     0.9800	    10.8700	 138.0	 1	     1.0600	     0.9400;
	37	 1	 0.00	 0.00	 0.0	 -25.0	 1	     0.9920	    11.7700	 138.0	 1	     1.0600	     0.9400;
	38	 1	 0.00	 0.00	 0.0	 0.0	 1	     0.9620	    16.9100	 345.0	 1	     1.0600	     0.9400;
	39	 1	 44.98	 11.00	 0.0	 0.0	 1	     0.9700	     8.4100	 138.0	 1	     1.0600	     0.9400;
	40	 2	 109.96	 23.00	 0.0	 0.0	 1	     0.9700	     7.3500	 138.0	 1	     1.0600	     0.9400;
	41	 1	 61.64	 10.00	 0.0	 0.0	 1	     0.9670	     6.9200	 138.0	 1	     1.0600	     0.9400;
	42	 2	 159.94	 23.00	 0.0	 0.0	 1	     0.9850	     8.5300	 138.0	 1	     1.0600	     0.9400;
	43	 1	 29.99	 7.00	 0.0	 0.0	 1	     0.9780	    11.2800	 138.0	 1	     1.0600	     0.9400;
	44	 1	 26.66	 8.00	 0.0	 10.0	 1	     0.9850	    13.8200	 138.0	 1	     1.0600	     0.9400;
	45	 1	 88.30	 22.00	 0.0	 10.0	 1	     0.9870	    15.6700	 138.0	 1	     1.0600	     0.9400;
	46	 2	 46.65	 10.00	 0.0	 10.0	 1	     1.0050	    18.4900	 138.0	 1	     1.0600	     0.9400;
	47	 1	 34.00	 0.00	 0.0	 0.0	 1	     1.0170	    20.7300	 138.0	 1	     1.0600	     0.9400;
	48	 1	 33.32	 11.00	 0.0	 15.0	 1	     1.0210	    19.9300	 138.0	 1	     1.0600	     0.9400;
	49	 2	 144.95	 30.00	 0.0	 0.0	 1	     1.0250	    20.9400	 138.0	 1	     1.0600	     0.9400;
	50	 1	 28.32	 4.00	 0.0	 0.0	 1	     1.0010	    18.9000	 138.0	 1	     1.0600	     0.9400;
	51	 1	 28.32	 8.00	 0.0	 0.0	 1	     0.9670	    16.2800	 138.0	 1	     1.0600	     0.9400;
	52	 1	 29.99	 5.00	 0.0	 0.0	 1	     0.9570	    15.3200	 138.0	 1	     1.0600	     0.9400;
	53	 1	 38.32	 11.00	 0.0	 0.0	 1	     0.9460	    14.3500	 138.0	 1	     1.0600	     0.9400;
	54	 2	 188.26	 32.00	 0.0	 0.0	 1	     0.9550	    15.2600	 138.0	 1	     1.0600	     0.9400;
	55	 2	 104.96	 22.00	 0.0	 0.0	 1	     0.9520	    14.9700	 138.0	 1	     1.0600	     0.9400;
	56	 2	 139.95	 18.00	 0.0	 0.0	 1	     0.9540	    15.1600	 138.0	 1	     1.0600	     0.9400;
	57	 1	 19.99	 3.00	 0.0	 0.0	 1	     0.9710	    16.3600	 138.0	 1	     1.0600	     0.9400;
	58	 1	 19.99	 3.00	 0.0	 0.0	 1	     0.9590	    15.5100	 138.0	 1	     1.0600	     0.9400;
	59	 2	 461.50	 113.00	 0.0	 0.0	 1	     0.9850	    19.3700	 138.0	 1	     1.0600	     0.9400;
	60	 1	 129.95	 3.00	 0.0	 0.0	 1	     0.9930	    23.1500	 138.0	 1	     1.0600	     0.9400;
	61	 2	 0.00	 0.00	 0.0	 0.0	 1	     0.9950	    24.0400	 138.0	 1	     1.0600	     0.9400;
	62	 2	 128.29	 14.00	 0.0	 0.0	 1	     0.9980	    23.4300	 138.0	 1	     1.0600	     0.9400;
	63	 1	 0.00	 0.00	 0.0	 0.0	 1	     0.9690	    22.7500	 345.0	 1	     1.0600	     0.9400;
	64	 1	 0.00	 0.00	 0.0	 0.0	 1	     0.9840	    24.5200	 345.0	 1	     1.0600	     0.9400;
	65	 2	 0.00	 0.00	 0.0	 0.0	 1	     1.0050	    27.6500	 345.0	 1	     1.0600	     0.9400;
	66	 2	 64.98	 18.00	 0.0	 0.0	 1	     1.0500	    27.4800	 138.0	 1	     1.0600	     0.9400;
	67	 1	 46.65	 7.00	 0.0	 0.0	 1	     1.0200	    24.8400	 138.0	 1	     1.0600	     0.9400;
	68	 1	 0.00	 0.00	 0.0	 0.0	 1	     1.0030	    27.5500	 345.0	 1	     1.0600	     0.9400;
	69	 3	 0.00	 0.00	 0.0	 0.0	 1	     1.0350	    30.0000	 138.0	 1	     1.0600	     0.9400;
	70	 2	 109.96	 20.00	 0.0	 0.0	 1	     0.9840	    22.5800	 138.0	 1	     1.0600	     0.9400;
	71	 1	 0.00	 0.00	 0.0	 0.0	 1	     0.9870	    22.1500	 138.0	 1	     1.0600	     0.9400;
	72	 2	 12.00	 0.00	 0.0	 0.0	 1	     0.9800	    20.9800	 138.0	 1	     1.0600	     0.9400;
	73	 2	 6.00	 0.00	 0.0	 0.0	 1	     0.9910	    21.9400	 138.0	 1	     1.0600	     0.9400;
	74	 2	 113.29	 27.00	 0.0	 12.0	 1	     0.9580	    21.6400	 138.0	 1	     1.0600	     0.9400;
	75	 1	 78.30	 11.00	 0.0	 0.0	 1	     0.9670	    22.9100	 138.0	 1	     1.0600	     0.9400;
	76	 2	 113.29	 36.00	 0.0	 0.0	 1	     0.9430	    21.7700	 138.0	 1	     1.0600	     0.9400;
	77	 2	 101.63	 28.00	 0.0	 0.0	 1	     1.0060	    26.7200	 138.0	 1	     1.0600	     0.9400;
	78	 1	 118.29	 26.00	 0.0	 0.0	 1	     1.0030	    26.4200	 138.0	 1	     1.0600	     0.9400;
	79	 1	 64.98	 32.00	 0.0	 20.0	 1	     1.0090	    26.7200	 138.0	 1	     1.0600	     0.9400;
	80	 2	 216.59	 26.00	 0.0	 0.0	 1	     1.0400	    28.9600	 138.0	 1	     1.0600	     0.9400;
	81	 1	 0.00	 0.00	 0.0	 0.0	 1	     0.9970	    28.1000	 345.0	 1	     1.0600	     0.9400;
	82	 1	 89.97	 27.00	 0.0	 20.0	 1	     0.9890	    27.2400	 138.0	 1	     1.0600	     0.9400;
	83	 1	 33.32	 10.00	 0.0	 10.0	 1	     0.9850	    28.4200	 138.0	 1	     1.0600	     0.9400;
	84	 1	 18.33	 7.00	 0.0	 0.0	 1	     0.9800	    30.9500	 138.0	 1	     1.0600	     0.9400;
	85	 2	 39.99	 15.00	 0.0	 0.0	 1	     0.9850	    32.5100	 138.0	 1	     1.0600	     0.9400;
	86	 1	 34.99	 10.00	 0.0	 0.0	 1	     0.9870	    31.1400	 138.0	 1	     1.0600	     0.9400;
	87	 2	 0.00	 0.00	 0.0	 0.0	 1	     1.0150	    31.4000	 161.0	 1	     1.0600	     0.9400;
	88	 1	 79.97	 10.00	 0.0	 0.0	 1	     0.9870	    35.6400	 138.0	 1	     1.0600	     0.9400;
	89	 2	 0.00	 0.00	 0.0	 0.0	 1	     1.0050	    39.6900	 138.0	 1	     1.0600	     0.9400;
	90	 2	 271.57	 42.00	 0.0	 0.0	 1	     0.9850	    33.2900	 138.0	 1	     1.0600	     0.9400;
	91	 2	 10.00	 0.00	 0.0	 0.0	 1	     0.9800	    33.3100	 138.0	 1	     1.0600	     0.9400;
	92	 2	 108.29	 10.00	 0.0	 0.0	 1	     0.9930	    33.8000	 138.0	 1	     1.0600	     0.9400;
	93	 1	 19.99	 7.00	 0.0	 0.0	 1	     0.9870	    30.7900	 138.0	 1	     1.0600	     0.9400;
	94	 1	 49.98	 16.00	 0.0	 0.0	 1	     0.9910	    28.6400	 138.0	 1	     1.0600	     0.9400;
	95	 1	 69.97	 31.00	 0.0	 0.0	 1	     0.9810	    27.6700	 138.0	 1	     1.0600	     0.9400;
	96	 1	 63.31	 15.00	 0.0	 0.0	 1	     0.9930	    27.5100	 138.0	 1	     1.0600	     0.9400;
	97	 1	 24.99	 9.00	 0.0	 0.0	 1	     1.0110	    27.8800	 138.0	 1	     1.0600	     0.9400;
	98	 1	 56.65	 8.00	 0.0	 0.0	 1	     1.0240	    27.4000	 138.0	 1	     1.0600	     0.9400;
	99	 2	 42.00	 0.00	 0.0	 0.0	 1	     1.0100	    27.0400	 138.0	 1	     1.0600	     0.9400;
	100	 2	 61.64	 18.00	 0.0	 0.0	 1	     1.0170	    28.0300	 138.0	 1	     1.0600	     0.9400;
	101	 1	 36.65	 15.00	 0.0	 0.0	 1	     0.9930	    29.6100	 138.0	 1	     1.0600	     0.9400;
	102	 1	 8.33	 3.00	 0.0	 0.0	 1	     0.9910	    32.3000	 138.0	 1	     1.0600	     0.9400;
	103	 2	 38.32	 16.00	 0.0	 0.0	 1	     1.0010	    24.4400	 138.0	 1	     1.0600	     0.9400;
	104	 2	 63.31	 25.00	 0.0	 0.0	 1	     0.9710	    21.6900	 138.0	 1	     1.0600	     0.9400;
	105	 2	 51.65	 26.00	 0.0	 20.0	 1	     0.9650	    20.5700	 138.0	 1	     1.0600	     0.9400;
	106	 1	 71.64	 16.00	 0.0	 0.0	 1	     0.9620	    20.3200	 138.0	 1	     1.0600	     0.9400;
	107	 2	 83.30	 12.00	 0.0	 6.0	 1	     0.9520	    17.5300	 138.0	 1	     1.0600	     0.9400;
	108	 1	 3.33	 1.00	 0.0	 0.0	 1	     0.9670	    19.3800	 138.0	 1	     1.0600	     0.9400;
	109	 1	 13.33	 3.00	 0.0	 0.0	 1	     0.9670	    18.9300	 138.0	 1	     1.0600	     0.9400;
	110	 2	 64.98	 30.00	 0.0	 6.0	 1	     0.9730	    18.0900	 138.0	 1	     1.0600	     0.9400;
	111	 2	 0.00	 0.00	 0.0	 0.0	 1	     0.9800	    19.7400	 138.0	 1	     1.0600	     0.9400;
	112	 2	 113.29	 13.00	 0.0	 0.0	 1	     0.9750	    14.9900	 138.0	 1	     1.0600	     0.9400;
	113	 2	 6.00	 0.00	 0.0	 0.0	 1	     0.9930	    13.7400	 138.0	 1	     1.0600	     0.9400;
	114	 1	 13.33	 3.00	 0.0	 0.0	 1	     0.9600	    14.4600	 138.0	 1	     1.0600	     0.9400;
	115	 1	 36.65	 7.00	 0.0	 0.0	 1	     0.9600	    14.4600	 138.0	 1	     1.0600	     0.9400;
	116	 2	 184.00	 0.00	 0.0	 0.0	 1	     1.0050	    27.1200	 138.0	 1	     1.0600	     0.9400;
	117	 1	 33.32	 8.00	 0.0	 0.0	 1	     0.9740	    10.6700	 138.0	 1	     1.0600	     0.9400;
	118	 1	 54.98	 15.00	 0.0	 0.0	 1	     0.9490	    21.9200	 138.0	 1	     1.0600	     0.9400;
];

%% generator data
%	bus	Pg	Qg	Qmax	Qmin	Vg	mBase	status	Pmax	Pmin	Pc1	Pc2	Qc1min	Qc1max	Qc2min	Qc2max	ramp_agc	ramp_10	ramp_30	ramp_q	apf
mpc.gen = [
	1	 0.0	 97.0	 116.4	 -116.4	 0.955	 100.0	 1	 0	 0.0	 0.0	 0.0	 0.0	 0.0	 0.0	 0.0	 0.0	 0.0	 0.0	 0.0	 0.0; % SYNC
	4	 0.0	 180.0	 300.0	 -300.0	 0.998	 100.0	 1	 0	 0.0	 0.0	 0.0	 0.0	 0.0	 0.0	 0.0	 0.0	 0.0	 0.0	 0.0	 0.0; % SYNC
	6	 0.0	 96.0	 115.2	 -115.2	 0.99	 100.0	 1	 0	 0.0	 0.0	 0.0	 0.0	 0.0	 0.0	 0.0	 0.0	 0.0	 0.0	 0.0	 0.0; % SYNC
	8	 0.0	 -4.0	 300.0	 -300.0	 1.015	 100.0	 1	 0	 0.0	 0.0	 0.0	 0.0	 0.0	 0.0	 0.0	 0.0	 0.0	 0.0	 0.0	 0.0; % SYNC
	10	 709.0	 16.0	 514.0	 -514.0	 1.05	 100.0	 1	 1027	 0.0	 0.0	 0.0	 0.0	 0.0	 0.0	 0.0	 0.0	 0.0	 0.0	 0.0	 0.0; % COW
	12	 669.0	 -15.0	 378.0	 -378.0	 0.99	 100.0	 1	 755	 0.0	 0.0	 0.0	 0.0	 0.0	 0.0	 0.0	 0.0	 0.0	 0.0	 0.0	 0.0; % NG
	15	 0.0	 -84.0	 100.8	 -100.8	 0.97	 100.0	 1	 0	 0.0	 0.0	 0.0	 0.0	 0.0	 0.0	 0.0	 0.0	 0.0	 0.0	 0.0	 0.0; % SYNC
	18	 0.0	 92.0	 110.4	 -110.4	 0.973	 100.0	 1	 0	 0.0	 0.0	 0.0	 0.0	 0.0	 0.0	 0.0	 0.0	 0.0	 0.0	 0.0	 0.0; % SYNC
	19	 0.0	 81.0	 97.2	 -97.2	 0.962	 100.0	 1	 0	 0.0	 0.0	 0.0	 0.0	 0.0	 0.0	 0.0	 0.0	 0.0	 0.0	 0.0	 0.0; % SYNC
	24	 0.0	 24.0	 300.0	 -300.0	 0.992	 100.0	 1	 0	 0.0	 0.0	 0.0	 0.0	 0.0	 0.0	 0.0	 0.0	 0.0	 0.0	 0.0	 0.0; % SYNC
	25	 0.0	 127.0	 134.0	 -152.4	 1.05	 100.0	 1	 87	 0.0	 0.0	 0.0	 0.0	 0.0	 0.0	 0.0	 0.0	 0.0	 0.0	 0.0	 0.0; % NG
	26	 388.0	 -196.0	 658.0	 -658.0	 1.015	 100.0	 1	 1316	 0.0	 0.0	 0.0	 0.0	 0.0	 0.0	 0.0	 0.0	 0.0	 0.0	 0.0	 0.0; % COW
	27	 0.0	 243.0	 300.0	 -300.0	 0.968	 100.0	 1	 0	 0.0	 0.0	 0.0	 0.0	 0.0	 0.0	 0.0	 0.0	 0.0	 0.0	 0.0	 0.0; % SYNC
	31	 424.0	 -18.0	 246.0	 -246.0	 0.967	 100.0	 1	 492	 0.0	 0.0	 0.0	 0.0	 0.0	 0.0	 0.0	 0.0	 0.0	 0.0	 0.0	 0.0; % PEL
	32	 0.0	 -86.0	 103.2	 -103.2	 0.963	 100.0	 1	 0	 0.0	 0.0	 0.0	 0.0	 0.0	 0.0	 0.0	 0.0	 0.0	 0.0	 0.0	 0.0; % SYNC
	34	 0.0	 145.0	 174.0	 -174.0	 0.984	 100.0	 1	 0	 0.0	 0.0	 0.0	 0.0	 0.0	 0.0	 0.0	 0.0	 0.0	 0.0	 0.0	 0.0; % SYNC
	36	 0.0	 62.0	 74.4	 -74.4	 0.98	 100.0	 1	 0	 0.0	 0.0	 0.0	 0.0	 0.0	 0.0	 0.0	 0.0	 0.0	 0.0	 0.0	 0.0; % SYNC
	40	 0.0	 152.0	 300.0	 -300.0	 0.97	 100.0	 1	 0	 0.0	 0.0	 0.0	 0.0	 0.0	 0.0	 0.0	 0.0	 0.0	 0.0	 0.0	 0.0; % SYNC
	42	 0.0	 3.0	 300.0	 -300.0	 0.985	 100.0	 1	 0	 0.0	 0.0	 0.0	 0.0	 0.0	 0.0	 0.0	 0.0	 0.0	 0.0	 0.0	 0.0; % SYNC
	46	 433.0	 -30.0	 272.0	 -272.0	 1.005	 100.0	 1	 543	 0.0	 0.0	 0.0	 0.0	 0.0	 0.0	 0.0	 0.0	 0.0	 0.0	 0.0	 0.0; % COW
	49	 200.0	 252.0	 302.4	 -302.4	 1.025	 100.0	 1	 381	 0.0	 0.0	 0.0	 0.0	 0.0	 0.0	 0.0	 0.0	 0.0	 0.0	 0.0	 0.0; % NG
	54	 275.0	 16.0	 247.0	 -247.0	 0.955	 100.0	 1	 494	 0.0	 0.0	 0.0	 0.0	 0.0	 0.0	 0.0	 0.0	 0.0	 0.0	 0.0	 0.0; % NG
	55	 0.0	 27.0	 32.4	 -32.4	 0.952	 100.0	 1	 0	 0.0	 0.0	 0.0	 0.0	 0.0	 0.0	 0.0	 0.0	 0.0	 0.0	 0.0	 0.0; % SYNC
	56	 0.0	 19.0	 22.8	 -22.8	 0.954	 100.0	 1	 0	 0.0	 0.0	 0.0	 0.0	 0.0	 0.0	 0.0	 0.0	 0.0	 0.0	 0.0	 0.0; % SYNC
	59	 657.0	 99.0	 367.0	 -367.0	 0.985	 100.0	 1	 734	 0.0	 0.0	 0.0	 0.0	 0.0	 0.0	 0.0	 0.0	 0.0	 0.0	 0.0	 0.0; % NG
	61	 116.0	 45.0	 190.0	 -190.0	 0.995	 100.0	 1	 379	 0.0	 0.0	 0.0	 0.0	 0.0	 0.0	 0.0	 0.0	 0.0	 0.0	 0.0	 0.0; % NG
	62	 0.0	 4.0	 20.0	 -20.0	 0.998	 100.0	 1	 0	 0.0	 0.0	 0.0	 0.0	 0.0	 0.0	 0.0	 0.0	 0.0	 0.0	 0.0	 0.0; % SYNC
	65	 1087.0	 -125.0	 590.0	 -590.0	 1.005	 100.0	 1	 1179	 0.0	 0.0	 0.0	 0.0	 0.0	 0.0	 0.0	 0.0	 0.0	 0.0	 0.0	 0.0; % COW
	66	 141.0	 -75.0	 200.0	 -100.0	 1.05	 100.0	 1	 200	 0.0	 0.0	 0.0	 0.0	 0.0	 0.0	 0.0	 0.0	 0.0	 0.0	 0.0	 0.0; % PEL
	69	 25.0	 -181.0	 300.0	 -300.0	 1.035	 100.0	 1	 124	 0.0	 0.0	 0.0	 0.0	 0.0	 0.0	 0.0	 0.0	 0.0	 0.0	 0.0	 0.0; % COW
	70	 0.0	 264.0	 316.8	 -316.8	 0.984	 100.0	 1	 0	 0.0	 0.0	 0.0	 0.0	 0.0	 0.0	 0.0	 0.0	 0.0	 0.0	 0.0	 0.0; % SYNC
	72	 0.0	 22.0	 100.0	 -100.0	 0.98	 100.0	 1	 0	 0.0	 0.0	 0.0	 0.0	 0.0	 0.0	 0.0	 0.0	 0.0	 0.0	 0.0	 0.0; % SYNC
	73	 0.0	 -1.0	 100.0	 -100.0	 0.991	 100.0	 1	 0	 0.0	 0.0	 0.0	 0.0	 0.0	 0.0	 0.0	 0.0	 0.0	 0.0	 0.0	 0.0; % SYNC
	74	 0.0	 -73.0	 87.6	 -87.6	 0.958	 100.0	 1	 0	 0.0	 0.0	 0.0	 0.0	 0.0	 0.0	 0.0	 0.0	 0.0	 0.0	 0.0	 0.0; % SYNC
	76	 0.0	 34.0	 40.8	 -40.8	 0.943	 100.0	 1	 0	 0.0	 0.0	 0.0	 0.0	 0.0	 0.0	 0.0	 0.0	 0.0	 0.0	 0.0	 0.0; % SYNC
	77	 0.0	 171.0	 205.2	 -205.2	 1.006	 100.0	 1	 0	 0.0	 0.0	 0.0	 0.0	 0.0	 0.0	 0.0	 0.0	 0.0	 0.0	 0.0	 0.0; % SYNC
	80	 278.0	 191.0	 511.0	 -511.0	 1.04	 100.0	 1	 1022	 0.0	 0.0	 0.0	 0.0	 0.0	 0.0	 0.0	 0.0	 0.0	 0.0	 0.0	 0.0; % NUC
	85	 0.0	 231.0	 277.2	 -277.2	 0.985	 100.0	 1	 0	 0.0	 0.0	 0.0	 0.0	 0.0	 0.0	 0.0	 0.0	 0.0	 0.0	 0.0	 0.0; % SYNC
	87	 140.0	 5.0	 79.0	 -79.0	 1.015	 100.0	 1	 157	 0.0	 0.0	 0.0	 0.0	 0.0	 0.0	 0.0	 0.0	 0.0	 0.0	 0.0	 0.0; % PEL
	89	 681.0	 -112.0	 451.0	 -451.0	 1.005	 100.0	 1	 902	 0.0	 0.0	 0.0	 0.0	 0.0	 0.0	 0.0	 0.0	 0.0	 0.0	 0.0	 0.0; % COW
	90	 0.0	 90.0	 300.0	 -300.0	 0.985	 100.0	 1	 0	 0.0	 0.0	 0.0	 0.0	 0.0	 0.0	 0.0	 0.0	 0.0	 0.0	 0.0	 0.0; % SYNC
	91	 0.0	 -6.0	 100.0	 -100.0	 0.98	 100.0	 1	 0	 0.0	 0.0	 0.0	 0.0	 0.0	 0.0	 0.0	 0.0	 0.0	 0.0	 0.0	 0.0; % SYNC
	92	 0.0	 -6.0	 9.0	 -7.2	 0.99	 100.0	 1	 0	 0.0	 0.0	 0.0	 0.0	 0.0	 0.0	 0.0	 0.0	 0.0	 0.0	 0.0	 0.0; % SYNC
	99	 0.0	 18.0	 100.0	 -100.0	 1.01	 100.0	 1	 0	 0.0	 0.0	 0.0	 0.0	 0.0	 0.0	 0.0	 0.0	 0.0	 0.0	 0.0	 0.0; % SYNC
	100	 508.0	 -131.0	 287.0	 -287.0	 1.017	 100.0	 1	 573	 0.0	 0.0	 0.0	 0.0	 0.0	 0.0	 0.0	 0.0	 0.0	 0.0	 0.0	 0.0; % NG
	103	 315.0	 -4.0	 230.0	 -230.0	 1.01	 100.0	 1	 460	 0.0	 0.0	 0.0	 0.0	 0.0	 0.0	 0.0	 0.0	 0.0	 0.0	 0.0	 0.0; % NG
	104	 0.0	 69.0	 82.8	 -82.8	 0.971	 100.0	 1	 0	 0.0	 0.0	 0.0	 0.0	 0.0	 0.0	 0.0	 0.0	 0.0	 0.0	 0.0	 0.0; % SYNC
	105	 0.0	 55.0	 66.0	 -66.0	 0.965	 100.0	 1	 0	 0.0	 0.0	 0.0	 0.0	 0.0	 0.0	 0.0	 0.0	 0.0	 0.0	 0.0	 0.0; % SYNC
	107	 0.0	 42.0	 200.0	 -200.0	 0.952	 100.0	 1	 0	 0.0	 0.0	 0.0	 0.0	 0.0	 0.0	 0.0	 0.0	 0.0	 0.0	 0.0	 0.0; % SYNC
	110	 0.0	 71.0	 85.2	 -85.2	 0.973	 100.0	 1	 0	 0.0	 0.0	 0.0	 0.0	 0.0	 0.0	 0.0	 0.0	 0.0	 0.0	 0.0	 0.0; % SYNC
	111	 106.0	 -15.0	 91.0	 -91.0	 0.98	 100.0	 1	 182	 0.0	 0.0	 0.0	 0.0	 0.0	 0.0	 0.0	 0.0	 0.0	 0.0	 0.0	 0.0; % COW
	112	 0.0	 24.0	 1000.0	 -100.0	 0.975	 100.0	 1	 0	 0.0	 0.0	 0.0	 0.0	 0.0	 0.0	 0.0	 0.0	 0.0	 0.0	 0.0	 0.0; % SYNC
	113	 0.0	 -127.0	 200.0	 -152.4	 0.993	 100.0	 1	 0	 0.0	 0.0	 0.0	 0.0	 0.0	 0.0	 0.0	 0.0	 0.0	 0.0	 0.0	 0.0; % SYNC
	116	 0.0	 -29.0	 1000.0	 -1000.0	 1.005	 100.0	 1	 0	 0.0	 0.0	 0.0	 0.0	 0.0	 0.0	 0.0	 0.0	 0.0	 0.0	 0.0	 0.0; % SYNC
];

%% generator cost data
%	2	startup	shutdown	n	c(n-1)	...	c0
mpc.gencost = [
	2	 0.0	 0.0	 3	   0.000000	   0.000000	   0.000000; % SYNC
	2	 0.0	 0.0	 3	   0.000000	   0.000000	   0.000000; % SYNC
	2	 0.0	 0.0	 3	   0.000000	   0.000000	   0.000000; % SYNC
	2	 0.0	 0.0	 3	   0.000000	   0.000000	   0.000000; % SYNC
	2	 0.0	 0.0	 3	   0.000000	   0.851212	   0.000000; % COW
	2	 0.0	 0.0	 3	   0.000000	   1.636611	   0.000000; % NG
	2	 0.0	 0.0	 3	   0.000000	   0.000000	   0.000000; % SYNC
	2	 0.0	 0.0	 3	   0.000000	   0.000000	   0.000000; % SYNC
	2	 0.0	 0.0	 3	   0.000000	   0.000000	   0.000000; % SYNC
	2	 0.0	 0.0	 3	   0.000000	   0.000000	   0.000000; % SYNC
	2	 0.0	 0.0	 3	   0.000000	   1.250357	   0.000000; % NG
	2	 0.0	 0.0	 3	   0.000000	   1.108822	   0.000000; % COW
	2	 0.0	 0.0	 3	   0.000000	   0.000000	   0.000000; % SYNC
	2	 0.0	 0.0	 3	   0.000000	   7.625363	   0.000000; % PEL
	2	 0.0	 0.0	 3	   0.000000	   0.000000	   0.000000; % SYNC
	2	 0.0	 0.0	 3	   0.000000	   0.000000	   0.000000; % SYNC
	2	 0.0	 0.0	 3	   0.000000	   0.000000	   0.000000; % SYNC
	2	 0.0	 0.0	 3	   0.000000	   0.000000	   0.000000; % SYNC
	2	 0.0	 0.0	 3	   0.000000	   0.000000	   0.000000; % SYNC
	2	 0.0	 0.0	 3	   0.000000	   1.250947	   0.000000; % COW
	2	 0.0	 0.0	 3	   0.000000	   1.099050	   0.000000; % NG
	2	 0.0	 0.0	 3	   0.000000	   0.969763	   0.000000; % NG
	2	 0.0	 0.0	 3	   0.000000	   0.000000	   0.000000; % SYNC
	2	 0.0	 0.0	 3	   0.000000	   0.000000	   0.000000; % SYNC
	2	 0.0	 0.0	 3	   0.000000	   1.076338	   0.000000; % NG
	2	 0.0	 0.0	 3	   0.000000	   0.998973	   0.000000; % NG
	2	 0.0	 0.0	 3	   0.000000	   0.000000	   0.000000; % SYNC
	2	 0.0	 0.0	 3	   0.000000	   0.735180	   0.000000; % COW
	2	 0.0	 0.0	 3	   0.000000	   7.324608	   0.000000; % PEL
	2	 0.0	 0.0	 3	   0.000000	   1.246709	   0.000000; % COW
	2	 0.0	 0.0	 3	   0.000000	   0.000000	   0.000000; % SYNC
	2	 0.0	 0.0	 3	   0.000000	   0.000000	   0.000000; % SYNC
	2	 0.0	 0.0	 3	   0.000000	   0.000000	   0.000000; % SYNC
	2	 0.0	 0.0	 3	   0.000000	   0.000000	   0.000000; % SYNC
	2	 0.0	 0.0	 3	   0.000000	   0.000000	   0.000000; % SYNC
	2	 0.0	 0.0	 3	   0.000000	   0.000000	   0.000000; % SYNC
	2	 0.0	 0.0	 3	   0.000000	   0.197990	   0.000000; % NUC
	2	 0.0	 0.0	 3	   0.000000	   0.000000	   0.000000; % SYNC
	2	 0.0	 0.0	 3	   0.000000	   6.782972	   0.000000; % PEL
	2	 0.0	 0.0	 3	   0.000000	   0.531115	   0.000000; % COW
	2	 0.0	 0.0	 3	   0.000000	   0.000000	   0.000000; % SYNC
	2	 0.0	 0.0	 3	   0.000000	   0.000000	   0.000000; % SYNC
	2	 0.0	 0.0	 3	   0.000000	   0.000000	   0.000000; % SYNC
	2	 0.0	 0.0	 3	   0.000000	   0.000000	   0.000000; % SYNC
	2	 0.0	 0.0	 3	   0.000000	   0.906219	   0.000000; % NG
	2	 0.0	 0.0	 3	   0.000000	   1.151713	   0.000000; % NG
	2	 0.0	 0.0	 3	   0.000000	   0.000000	   0.000000; % SYNC
	2	 0.0	 0.0	 3	   0.000000	   0.000000	   0.000000; % SYNC
	2	 0.0	 0.0	 3	   0.000000	   0.000000	   0.000000; % SYNC
	2	 0.0	 0.0	 3	   0.000000	   0.000000	   0.000000; % SYNC
	2	 0.0	 0.0	 3	   0.000000	   0.958799	   0.000000; % COW
	2	 0.0	 0.0	 3	   0.000000	   0.000000	   0.000000; % SYNC
	2	 0.0	 0.0	 3	   0.000000	   0.000000	   0.000000; % SYNC
	2	 0.0	 0.0	 3	   0.000000	   0.000000	   0.000000; % SYNC
];

%% branch data
%	fbus	tbus	r	x	b	rateA	rateB	rateC	ratio	angle	status	angmin	angmax
mpc.branch = [
	1	 2	 0.0303	 0.0999	 0.0254	 150.0	 150.0	 150.0	 0.0	 0.0	 1	 -30.0	 30.0;
	1	 3	 0.0129	 0.0424	 0.01082	 150.0	 150.0	 150.0	 0.0	 0.0	 1	 -30.0	 30.0;
	4	 5	 0.00176	 0.00798	 0.0021	 175.0	 175.0	 175.0	 0.0	 0.0	 1	 -30.0	 30.0;
	3	 5	 0.0241	 0.108	 0.0284	 174.0	 174.0	 174.0	 0.0	 0.0	 1	 -30.0	 30.0;
	5	 6	 0.0119	 0.054	 0.01426	 175.0	 175.0	 175.0	 0.0	 0.0	 1	 -30.0	 30.0;
	6	 7	 0.00459	 0.0208	 0.0055	 175.0	 175.0	 175.0	 0.0	 0.0	 1	 -30.0	 30.0;
	8	 9	 0.00244	 0.0305	 1.162	 710.0	 710.0	 710.0	 0.0	 0.0	 1	 -30.0	 30.0;
	8	 5	 0.0	 0.0267	 0.0	 1098.0	 1098.0	 1098.0	 0.985	 0.0	 1	 -30.0	 30.0;
	9	 10	 0.00258	 0.0322	 1.23	 709.0	 709.0	 709.0	 0.0	 0.0	 1	 -30.0	 30.0;
	4	 11	 0.0209	 0.0688	 0.01748	 150.0	 150.0	 150.0	 0.0	 0.0	 1	 -30.0	 30.0;
	5	 11	 0.0203	 0.0682	 0.01738	 151.0	 151.0	 151.0	 0.0	 0.0	 1	 -30.0	 30.0;
	11	 12	 0.00595	 0.0196	 0.00502	 150.0	 150.0	 150.0	 0.0	 0.0	 1	 -30.0	 30.0;
	2	 12	 0.0187	 0.0616	 0.01572	 150.0	 150.0	 150.0	 0.0	 0.0	 1	 -30.0	 30.0;
	3	 12	 0.0484	 0.16	 0.0406	 150.0	 150.0	 150.0	 0.0	 0.0	 1	 -30.0	 30.0;
	7	 12	 0.00862	 0.034	 0.00874	 163.0	 163.0	 163.0	 0.0	 0.0	 1	 -30.0	 30.0;
	11	 13	 0.02225	 0.0731	 0.01876	 150.0	 150.0	 150.0	 0.0	 0.0	 1	 -30.0	 30.0;
	12	 14	 0.0215	 0.0707	 0.01816	 150.0	 150.0	 150.0	 0.0	 0.0	 1	 -30.0	 30.0;
	13	 15	 0.0744	 0.2444	 0.06268	 114.0	 114.0	 114.0	 0.0	 0.0	 1	 -30.0	 30.0;
	14	 15	 0.0595	 0.195	 0.0502	 143.0	 143.0	 143.0	 0.0	 0.0	 1	 -30.0	 30.0;
	12	 16	 0.0212	 0.0834	 0.0214	 163.0	 163.0	 163.0	 0.0	 0.0	 1	 -30.0	 30.0;
	15	 17	 0.0132	 0.0437	 0.0444	 150.0	 150.0	 150.0	 0.0	 0.0	 1	 -30.0	 30.0;
	16	 17	 0.0454	 0.1801	 0.0466	 157.0	 157.0	 157.0	 0.0	 0.0	 1	 -30.0	 30.0;
	17	 18	 0.0123	 0.0505	 0.01298	 166.0	 166.0	 166.0	 0.0	 0.0	 1	 -30.0	 30.0;
	18	 19	 0.01119	 0.0493	 0.01142	 172.0	 172.0	 172.0	 0.0	 0.0	 1	 -30.0	 30.0;
	19	 20	 0.0252	 0.117	 0.0298	 177.0	 177.0	 177.0	 0.0	 0.0	 1	 -30.0	 30.0;
	15	 19	 0.012	 0.0394	 0.0101	 150.0	 150.0	 150.0	 0.0	 0.0	 1	 -30.0	 30.0;
	20	 21	 0.0183	 0.0849	 0.0216	 176.0	 176.0	 176.0	 0.0	 0.0	 1	 -30.0	 30.0;
	21	 22	 0.0209	 0.097	 0.0246	 177.0	 177.0	 177.0	 0.0	 0.0	 1	 -30.0	 30.0;
	22	 23	 0.0342	 0.159	 0.0404	 177.0	 177.0	 177.0	 0.0	 0.0	 1	 -30.0	 30.0;
	23	 24	 0.0135	 0.0492	 0.0498	 157.0	 157.0	 157.0	 0.0	 0.0	 1	 -30.0	 30.0;
	23	 25	 0.0156	 0.08	 0.0864	 185.0	 185.0	 185.0	 0.0	 0.0	 1	 -30.0	 30.0;
	26	 25	 0.0	 0.0382	 0.0	 767.0	 767.0	 767.0	 0.96	 0.0	 1	 -30.0	 30.0;
	25	 27	 0.0318	 0.163	 0.1764	 176.0	 176.0	 176.0	 0.0	 0.0	 1	 -30.0	 30.0;
	27	 28	 0.01913	 0.0855	 0.0216	 173.0	 173.0	 173.0	 0.0	 0.0	 1	 -30.0	 30.0;
	28	 29	 0.0237	 0.0943	 0.0238	 164.0	 164.0	 164.0	 0.0	 0.0	 1	 -30.0	 30.0;
	30	 17	 0.0	 0.0388	 0.0	 755.0	 755.0	 755.0	 0.96	 0.0	 1	 -30.0	 30.0;
	8	 30	 0.00431	 0.0504	 0.514	 579.0	 579.0	 579.0	 0.0	 0.0	 1	 -30.0	 30.0;
	26	 30	 0.00799	 0.086	 0.908	 339.0	 339.0	 339.0	 0.0	 0.0	 1	 -30.0	 30.0;
	17	 31	 0.0474	 0.1563	 0.0399	 150.0	 150.0	 150.0	 0.0	 0.0	 1	 -30.0	 30.0;
	29	 31	 0.0108	 0.0331	 0.0083	 145.0	 145.0	 145.0	 0.0	 0.0	 1	 -30.0	 30.0;
	23	 32	 0.0317	 0.1153	 0.1173	 157.0	 157.0	 157.0	 0.0	 0.0	 1	 -30.0	 30.0;
	31	 32	 0.0298	 0.0985	 0.0251	 150.0	 150.0	 150.0	 0.0	 0.0	 1	 -30.0	 30.0;
	27	 32	 0.0229	 0.0755	 0.01926	 150.0	 150.0	 150.0	 0.0	 0.0	 1	 -30.0	 30.0;
	15	 33	 0.038	 0.1244	 0.03194	 149.0	 149.0	 149.0	 0.0	 0.0	 1	 -30.0	 30.0;
	19	 34	 0.0752	 0.247	 0.0632	 113.0	 113.0	 113.0	 0.0	 0.0	 1	 -30.0	 30.0;
	35	 36	 0.00224	 0.0102	 0.00268	 175.0	 175.0	 175.0	 0.0	 0.0	 1	 -30.0	 30.0;
	35	 37	 0.011	 0.0497	 0.01318	 174.0	 174.0	 174.0	 0.0	 0.0	 1	 -30.0	 30.0;
	33	 37	 0.0415	 0.142	 0.0366	 153.0	 153.0	 153.0	 0.0	 0.0	 1	 -30.0	 30.0;
	34	 36	 0.00871	 0.0268	 0.00568	 145.0	 145.0	 145.0	 0.0	 0.0	 1	 -30.0	 30.0;
	34	 37	 0.00256	 0.0094	 0.00984	 158.0	 158.0	 158.0	 0.0	 0.0	 1	 -30.0	 30.0;
	38	 37	 0.0	 0.0375	 0.0	 782.0	 782.0	 782.0	 0.935	 0.0	 1	 -30.0	 30.0;
	37	 39	 0.0321	 0.106	 0.027	 150.0	 150.0	 150.0	 0.0	 0.0	 1	 -30.0	 30.0;
	37	 40	 0.0593	 0.168	 0.042	 139.0	 139.0	 139.0	 0.0	 0.0	 1	 -30.0	 30.0;
	30	 38	 0.00464	 0.054	 0.422	 541.0	 541.0	 541.0	 0.0	 0.0	 1	 -30.0	 30.0;
	39	 40	 0.0184	 0.0605	 0.01552	 150.0	 150.0	 150.0	 0.0	 0.0	 1	 -30.0	 30.0;
	40	 41	 0.0145	 0.0487	 0.01222	 151.0	 151.0	 151.0	 0.0	 0.0	 1	 -30.0	 30.0;
	40	 42	 0.0555	 0.183	 0.0466	 150.0	 150.0	 150.0	 0.0	 0.0	 1	 -30.0	 30.0;
	41	 42	 0.041	 0.135	 0.0344	 150.0	 150.0	 150.0	 0.0	 0.0	 1	 -30.0	 30.0;
	43	 44	 0.0608	 0.2454	 0.06068	 116.0	 116.0	 116.0	 0.0	 0.0	 1	 -30.0	 30.0;
	34	 43	 0.0413	 0.1681	 0.04226	 166.0	 166.0	 166.0	 0.0	 0.0	 1	 -30.0	 30.0;
	44	 45	 0.0224	 0.0901	 0.0224	 165.0	 165.0	 165.0	 0.0	 0.0	 1	 -30.0	 30.0;
	45	 46	 0.04	 0.1356	 0.0332	 152.0	 152.0	 152.0	 0.0	 0.0	 1	 -30.0	 30.0;
	46	 47	 0.038	 0.127	 0.0316	 151.0	 151.0	 151.0	 0.0	 0.0	 1	 -30.0	 30.0;
	46	 48	 0.0601	 0.189	 0.0472	 147.0	 147.0	 147.0	 0.0	 0.0	 1	 -30.0	 30.0;
	47	 49	 0.0191	 0.0625	 0.01604	 149.0	 149.0	 149.0	 0.0	 0.0	 1	 -30.0	 30.0;
	42	 49	 0.0715	 0.323	 0.086	 88.0	 88.0	 88.0	 0.0	 0.0	 1	 -30.0	 30.0;
	42	 49	 0.0715	 0.323	 0.086	 88.0	 88.0	 88.0	 0.0	 0.0	 1	 -30.0	 30.0;
	45	 49	 0.0684	 0.186	 0.0444	 137.0	 137.0	 137.0	 0.0	 0.0	 1	 -30.0	 30.0;
	48	 49	 0.0179	 0.0505	 0.01258	 139.0	 139.0	 139.0	 0.0	 0.0	 1	 -30.0	 30.0;
	49	 50	 0.0267	 0.0752	 0.01874	 139.0	 139.0	 139.0	 0.0	 0.0	 1	 -30.0	 30.0;
	49	 51	 0.0486	 0.137	 0.0342	 139.0	 139.0	 139.0	 0.0	 0.0	 1	 -30.0	 30.0;
	51	 52	 0.0203	 0.0588	 0.01396	 141.0	 141.0	 141.0	 0.0	 0.0	 1	 -30.0	 30.0;
	52	 53	 0.0405	 0.1635	 0.04058	 165.0	 165.0	 165.0	 0.0	 0.0	 1	 -30.0	 30.0;
	53	 54	 0.0263	 0.122	 0.031	 176.0	 176.0	 176.0	 0.0	 0.0	 1	 -30.0	 30.0;
	49	 54	 0.073	 0.289	 0.0738	 98.0	 98.0	 98.0	 0.0	 0.0	 1	 -30.0	 30.0;
	49	 54	 0.0869	 0.291	 0.073	 96.0	 96.0	 96.0	 0.0	 0.0	 1	 -30.0	 30.0;
	54	 55	 0.0169	 0.0707	 0.0202	 168.0	 168.0	 168.0	 0.0	 0.0	 1	 -30.0	 30.0;
	54	 56	 0.00275	 0.00955	 0.00732	 154.0	 154.0	 154.0	 0.0	 0.0	 1	 -30.0	 30.0;
	55	 56	 0.00488	 0.0151	 0.00374	 145.0	 145.0	 145.0	 0.0	 0.0	 1	 -30.0	 30.0;
	56	 57	 0.0343	 0.0966	 0.0242	 139.0	 139.0	 139.0	 0.0	 0.0	 1	 -30.0	 30.0;
	50	 57	 0.0474	 0.134	 0.0332	 139.0	 139.0	 139.0	 0.0	 0.0	 1	 -30.0	 30.0;
	56	 58	 0.0343	 0.0966	 0.0242	 139.0	 139.0	 139.0	 0.0	 0.0	 1	 -30.0	 30.0;
	51	 58	 0.0255	 0.0719	 0.01788	 139.0	 139.0	 139.0	 0.0	 0.0	 1	 -30.0	 30.0;
	54	 59	 0.0503	 0.2293	 0.0598	 124.0	 124.0	 124.0	 0.0	 0.0	 1	 -30.0	 30.0;
	56	 59	 0.0825	 0.251	 0.0569	 111.0	 111.0	 111.0	 0.0	 0.0	 1	 -30.0	 30.0;
	56	 59	 0.0803	 0.239	 0.0536	 116.0	 116.0	 116.0	 0.0	 0.0	 1	 -30.0	 30.0;
	55	 59	 0.04739	 0.2158	 0.05646	 132.0	 132.0	 132.0	 0.0	 0.0	 1	 -30.0	 30.0;
	59	 60	 0.0317	 0.145	 0.0376	 175.0	 175.0	 175.0	 0.0	 0.0	 1	 -30.0	 30.0;
	59	 61	 0.0328	 0.15	 0.0388	 175.0	 175.0	 175.0	 0.0	 0.0	 1	 -30.0	 30.0;
	60	 61	 0.00264	 0.0135	 0.01456	 185.0	 185.0	 185.0	 0.0	 0.0	 1	 -30.0	 30.0;
	60	 62	 0.0123	 0.0561	 0.01468	 175.0	 175.0	 175.0	 0.0	 0.0	 1	 -30.0	 30.0;
	61	 62	 0.00824	 0.0376	 0.0098	 175.0	 175.0	 175.0	 0.0	 0.0	 1	 -30.0	 30.0;
	63	 59	 0.0	 0.0386	 0.0	 759.0	 759.0	 759.0	 0.96	 0.0	 1	 -30.0	 30.0;
	63	 64	 0.00172	 0.02	 0.216	 686.0	 686.0	 686.0	 0.0	 0.0	 1	 -30.0	 30.0;
	64	 61	 0.0	 0.0268	 0.0	 1094.0	 1094.0	 1094.0	 0.985	 0.0	 1	 -30.0	 30.0;
	38	 65	 0.00901	 0.0986	 1.046	 296.0	 296.0	 296.0	 0.0	 0.0	 1	 -30.0	 30.0;
	64	 65	 0.00269	 0.0302	 0.38	 674.0	 674.0	 674.0	 0.0	 0.0	 1	 -30.0	 30.0;
	49	 66	 0.018	 0.0919	 0.0248	 185.0	 185.0	 185.0	 0.0	 0.0	 1	 -30.0	 30.0;
	49	 66	 0.018	 0.0919	 0.0248	 185.0	 185.0	 185.0	 0.0	 0.0	 1	 -30.0	 30.0;
	62	 66	 0.0482	 0.218	 0.0578	 131.0	 131.0	 131.0	 0.0	 0.0	 1	 -30.0	 30.0;
	62	 67	 0.0258	 0.117	 0.031	 175.0	 175.0	 175.0	 0.0	 0.0	 1	 -30.0	 30.0;
	65	 66	 0.0	 0.037	 0.0	 792.0	 792.0	 792.0	 0.935	 0.0	 1	 -30.0	 30.0;
	66	 67	 0.0224	 0.1015	 0.02682	 175.0	 175.0	 175.0	 0.0	 0.0	 1	 -30.0	 30.0;
	65	 68	 0.00138	 0.016	 0.638	 685.0	 685.0	 685.0	 0.0	 0.0	 1	 -30.0	 30.0;
	47	 69	 0.0844	 0.2778	 0.07092	 101.0	 101.0	 101.0	 0.0	 0.0	 1	 -30.0	 30.0;
	49	 69	 0.0985	 0.324	 0.0828	 86.0	 86.0	 86.0	 0.0	 0.0	 1	 -30.0	 30.0;
	68	 69	 0.0	 0.037	 0.0	 792.0	 792.0	 792.0	 0.935	 0.0	 1	 -30.0	 30.0;
	69	 70	 0.03	 0.127	 0.122	 169.0	 169.0	 169.0	 0.0	 0.0	 1	 -30.0	 30.0;
	24	 70	 0.00221	 0.4115	 0.10198	 71.0	 71.0	 71.0	 0.0	 0.0	 1	 -30.0	 30.0;
	70	 71	 0.00882	 0.0355	 0.00878	 165.0	 165.0	 165.0	 0.0	 0.0	 1	 -30.0	 30.0;
	24	 72	 0.0488	 0.196	 0.0488	 145.0	 145.0	 145.0	 0.0	 0.0	 1	 -30.0	 30.0;
	71	 72	 0.0446	 0.18	 0.04444	 158.0	 158.0	 158.0	 0.0	 0.0	 1	 -30.0	 30.0;
	71	 73	 0.00866	 0.0454	 0.01178	 187.0	 187.0	 187.0	 0.0	 0.0	 1	 -30.0	 30.0;
	70	 74	 0.0401	 0.1323	 0.03368	 150.0	 150.0	 150.0	 0.0	 0.0	 1	 -30.0	 30.0;
	70	 75	 0.0428	 0.141	 0.036	 150.0	 150.0	 150.0	 0.0	 0.0	 1	 -30.0	 30.0;
	69	 75	 0.0405	 0.122	 0.124	 144.0	 144.0	 144.0	 0.0	 0.0	 1	 -30.0	 30.0;
	74	 75	 0.0123	 0.0406	 0.01034	 150.0	 150.0	 150.0	 0.0	 0.0	 1	 -30.0	 30.0;
	76	 77	 0.0444	 0.148	 0.0368	 151.0	 151.0	 151.0	 0.0	 0.0	 1	 -30.0	 30.0;
	69	 77	 0.0309	 0.101	 0.1038	 149.0	 149.0	 149.0	 0.0	 0.0	 1	 -30.0	 30.0;
	75	 77	 0.0601	 0.1999	 0.04978	 140.0	 140.0	 140.0	 0.0	 0.0	 1	 -30.0	 30.0;
	77	 78	 0.00376	 0.0124	 0.01264	 150.0	 150.0	 150.0	 0.0	 0.0	 1	 -30.0	 30.0;
	78	 79	 0.00546	 0.0244	 0.00648	 173.0	 173.0	 173.0	 0.0	 0.0	 1	 -30.0	 30.0;
	77	 80	 0.017	 0.0485	 0.0472	 140.0	 140.0	 140.0	 0.0	 0.0	 1	 -30.0	 30.0;
	77	 80	 0.0294	 0.105	 0.0228	 156.0	 156.0	 156.0	 0.0	 0.0	 1	 -30.0	 30.0;
	79	 80	 0.0156	 0.0704	 0.0187	 174.0	 174.0	 174.0	 0.0	 0.0	 1	 -30.0	 30.0;
	68	 81	 0.00175	 0.0202	 0.808	 683.0	 683.0	 683.0	 0.0	 0.0	 1	 -30.0	 30.0;
	81	 80	 0.0	 0.037	 0.0	 792.0	 792.0	 792.0	 0.935	 0.0	 1	 -30.0	 30.0;
	77	 82	 0.0298	 0.0853	 0.08174	 140.0	 140.0	 140.0	 0.0	 0.0	 1	 -30.0	 30.0;
	82	 83	 0.0112	 0.03665	 0.03796	 149.0	 149.0	 149.0	 0.0	 0.0	 1	 -30.0	 30.0;
	83	 84	 0.0625	 0.132	 0.0258	 121.0	 121.0	 121.0	 0.0	 0.0	 1	 -30.0	 30.0;
	83	 85	 0.043	 0.148	 0.0348	 153.0	 153.0	 153.0	 0.0	 0.0	 1	 -30.0	 30.0;
	84	 85	 0.0302	 0.0641	 0.01234	 121.0	 121.0	 121.0	 0.0	 0.0	 1	 -30.0	 30.0;
	85	 86	 0.035	 0.123	 0.0276	 155.0	 155.0	 155.0	 0.0	 0.0	 1	 -30.0	 30.0;
	86	 87	 0.02828	 0.2074	 0.0445	 140.0	 140.0	 140.0	 0.0	 0.0	 1	 -30.0	 30.0;
	85	 88	 0.02	 0.102	 0.0276	 185.0	 185.0	 185.0	 0.0	 0.0	 1	 -30.0	 30.0;
	85	 89	 0.0239	 0.173	 0.047	 167.0	 167.0	 167.0	 0.0	 0.0	 1	 -30.0	 30.0;
	88	 89	 0.0139	 0.0712	 0.01934	 185.0	 185.0	 185.0	 0.0	 0.0	 1	 -30.0	 30.0;
	89	 90	 0.0518	 0.188	 0.0528	 150.0	 150.0	 150.0	 0.0	 0.0	 1	 -30.0	 30.0;
	89	 90	 0.0238	 0.0997	 0.106	 168.0	 168.0	 168.0	 0.0	 0.0	 1	 -30.0	 30.0;
	90	 91	 0.0254	 0.0836	 0.0214	 150.0	 150.0	 150.0	 0.0	 0.0	 1	 -30.0	 30.0;
	89	 92	 0.0099	 0.0505	 0.0548	 185.0	 185.0	 185.0	 0.0	 0.0	 1	 -30.0	 30.0;
	89	 92	 0.0393	 0.1581	 0.0414	 165.0	 165.0	 165.0	 0.0	 0.0	 1	 -30.0	 30.0;
	91	 92	 0.0387	 0.1272	 0.03268	 150.0	 150.0	 150.0	 0.0	 0.0	 1	 -30.0	 30.0;
	92	 93	 0.0258	 0.0848	 0.0218	 150.0	 150.0	 150.0	 0.0	 0.0	 1	 -30.0	 30.0;
	92	 94	 0.0481	 0.158	 0.0406	 150.0	 150.0	 150.0	 0.0	 0.0	 1	 -30.0	 30.0;
	93	 94	 0.0223	 0.0732	 0.01876	 150.0	 150.0	 150.0	 0.0	 0.0	 1	 -30.0	 30.0;
	94	 95	 0.0132	 0.0434	 0.0111	 150.0	 150.0	 150.0	 0.0	 0.0	 1	 -30.0	 30.0;
	80	 96	 0.0356	 0.182	 0.0494	 158.0	 158.0	 158.0	 0.0	 0.0	 1	 -30.0	 30.0;
	82	 96	 0.0162	 0.053	 0.0544	 149.0	 149.0	 149.0	 0.0	 0.0	 1	 -30.0	 30.0;
	94	 96	 0.0269	 0.0869	 0.023	 148.0	 148.0	 148.0	 0.0	 0.0	 1	 -30.0	 30.0;
	80	 97	 0.0183	 0.0934	 0.0254	 185.0	 185.0	 185.0	 0.0	 0.0	 1	 -30.0	 30.0;
	80	 98	 0.0238	 0.108	 0.0286	 175.0	 175.0	 175.0	 0.0	 0.0	 1	 -30.0	 30.0;
	80	 99	 0.0454	 0.206	 0.0546	 139.0	 139.0	 139.0	 0.0	 0.0	 1	 -30.0	 30.0;
	92	 100	 0.0648	 0.295	 0.0472	 97.0	 97.0	 97.0	 0.0	 0.0	 1	 -30.0	 30.0;
	94	 100	 0.0178	 0.058	 0.0604	 149.0	 149.0	 149.0	 0.0	 0.0	 1	 -30.0	 30.0;
	95	 96	 0.0171	 0.0547	 0.01474	 148.0	 148.0	 148.0	 0.0	 0.0	 1	 -30.0	 30.0;
	96	 97	 0.0173	 0.0885	 0.024	 185.0	 185.0	 185.0	 0.0	 0.0	 1	 -30.0	 30.0;
	98	 100	 0.0397	 0.179	 0.0476	 159.0	 159.0	 159.0	 0.0	 0.0	 1	 -30.0	 30.0;
	99	 100	 0.018	 0.0813	 0.0216	 174.0	 174.0	 174.0	 0.0	 0.0	 1	 -30.0	 30.0;
	100	 101	 0.0277	 0.1262	 0.0328	 175.0	 175.0	 175.0	 0.0	 0.0	 1	 -30.0	 30.0;
	92	 102	 0.0123	 0.0559	 0.01464	 175.0	 175.0	 175.0	 0.0	 0.0	 1	 -30.0	 30.0;
	101	 102	 0.0246	 0.112	 0.0294	 175.0	 175.0	 175.0	 0.0	 0.0	 1	 -30.0	 30.0;
	100	 103	 0.016	 0.0525	 0.0536	 150.0	 150.0	 150.0	 0.0	 0.0	 1	 -30.0	 30.0;
	100	 104	 0.0451	 0.204	 0.0541	 140.0	 140.0	 140.0	 0.0	 0.0	 1	 -30.0	 30.0;
	103	 104	 0.0466	 0.1584	 0.0407	 152.0	 152.0	 152.0	 0.0	 0.0	 1	 -30.0	 30.0;
	103	 105	 0.0535	 0.1625	 0.0408	 144.0	 144.0	 144.0	 0.0	 0.0	 1	 -30.0	 30.0;
	100	 106	 0.0605	 0.229	 0.062	 123.0	 123.0	 123.0	 0.0	 0.0	 1	 -30.0	 30.0;
	104	 105	 0.00994	 0.0378	 0.00986	 160.0	 160.0	 160.0	 0.0	 0.0	 1	 -30.0	 30.0;
	105	 106	 0.014	 0.0547	 0.01434	 163.0	 163.0	 163.0	 0.0	 0.0	 1	 -30.0	 30.0;
	105	 107	 0.053	 0.183	 0.0472	 153.0	 153.0	 153.0	 0.0	 0.0	 1	 -30.0	 30.0;
	105	 108	 0.0261	 0.0703	 0.01844	 136.0	 136.0	 136.0	 0.0	 0.0	 1	 -30.0	 30.0;
	106	 107	 0.053	 0.183	 0.0472	 153.0	 153.0	 153.0	 0.0	 0.0	 1	 -30.0	 30.0;
	108	 109	 0.0105	 0.0288	 0.0076	 137.0	 137.0	 137.0	 0.0	 0.0	 1	 -30.0	 30.0;
	103	 110	 0.03906	 0.1813	 0.0461	 158.0	 158.0	 158.0	 0.0	 0.0	 1	 -30.0	 30.0;
	109	 110	 0.0278	 0.0762	 0.0202	 137.0	 137.0	 137.0	 0.0	 0.0	 1	 -30.0	 30.0;
	110	 111	 0.022	 0.0755	 0.02	 153.0	 153.0	 153.0	 0.0	 0.0	 1	 -30.0	 30.0;
	110	 112	 0.0247	 0.064	 0.062	 134.0	 134.0	 134.0	 0.0	 0.0	 1	 -30.0	 30.0;
	17	 113	 0.00913	 0.0301	 0.00768	 150.0	 150.0	 150.0	 0.0	 0.0	 1	 -30.0	 30.0;
	32	 113	 0.0615	 0.203	 0.0518	 138.0	 138.0	 138.0	 0.0	 0.0	 1	 -30.0	 30.0;
	32	 114	 0.0135	 0.0612	 0.01628	 175.0	 175.0	 175.0	 0.0	 0.0	 1	 -30.0	 30.0;
	27	 115	 0.0164	 0.0741	 0.01972	 174.0	 174.0	 174.0	 0.0	 0.0	 1	 -30.0	 30.0;
	114	 115	 0.0023	 0.0104	 0.00276	 174.0	 174.0	 174.0	 0.0	 0.0	 1	 -30.0	 30.0;
	68	 116	 0.00034	 0.00405	 0.164	 7217.0	 7217.0	 7217.0	 0.0	 0.0	 1	 -30.0	 30.0;
	12	 117	 0.0329	 0.14	 0.0358	 169.0	 169.0	 169.0	 0.0	 0.0	 1	 -30.0	 30.0;
	75	 118	 0.0145	 0.0481	 0.01198	 150.0	 150.0	 150.0	 0.0	 0.0	 1	 -30.0	 30.0;
	76	 118	 0.0164	 0.0544	 0.01356	 150.0	 150.0	 150.0	 0.0	 0.0	 1	 -30.0	 30.0;
];

% INFO    : === Translation Options ===
% INFO    : Load Model:                  from file ./nesta_case118_ieee.dat.sol
% INFO    : Gen Active Capacity Model:   stat
% INFO    : Gen Reactive Capacity Model: al50ag
% INFO    : Gen Active Cost Model:       stat
% INFO    : 
% INFO    : === Load Replacement Notes ===
% INFO    : Bus 1	: Pd=51.0, Qd=27.0 -> Pd=84.97, Qd=27.00
% INFO    : Bus 2	: Pd=20.0, Qd=9.0 -> Pd=33.32, Qd=9.00
% INFO    : Bus 3	: Pd=39.0, Qd=10.0 -> Pd=64.98, Qd=10.00
% INFO    : Bus 4	: Pd=39.0, Qd=12.0 -> Pd=64.98, Qd=12.00
% INFO    : Bus 5	: Pd=0.0, Qd=0.0 -> Pd=0.00, Qd=0.00
% INFO    : Bus 6	: Pd=52.0, Qd=22.0 -> Pd=86.63, Qd=22.00
% INFO    : Bus 7	: Pd=19.0, Qd=2.0 -> Pd=31.66, Qd=2.00
% INFO    : Bus 8	: Pd=28.0, Qd=0.0 -> Pd=28.00, Qd=0.00
% INFO    : Bus 9	: Pd=0.0, Qd=0.0 -> Pd=0.00, Qd=0.00
% INFO    : Bus 10	: Pd=0.0, Qd=0.0 -> Pd=0.00, Qd=0.00
% INFO    : Bus 11	: Pd=70.0, Qd=23.0 -> Pd=116.62, Qd=23.00
% INFO    : Bus 12	: Pd=47.0, Qd=10.0 -> Pd=78.30, Qd=10.00
% INFO    : Bus 13	: Pd=34.0, Qd=16.0 -> Pd=56.65, Qd=16.00
% INFO    : Bus 14	: Pd=14.0, Qd=1.0 -> Pd=23.32, Qd=1.00
% INFO    : Bus 15	: Pd=90.0, Qd=30.0 -> Pd=149.94, Qd=30.00
% INFO    : Bus 16	: Pd=25.0, Qd=10.0 -> Pd=41.65, Qd=10.00
% INFO    : Bus 17	: Pd=11.0, Qd=3.0 -> Pd=18.33, Qd=3.00
% INFO    : Bus 18	: Pd=60.0, Qd=34.0 -> Pd=99.96, Qd=34.00
% INFO    : Bus 19	: Pd=45.0, Qd=25.0 -> Pd=74.97, Qd=25.00
% INFO    : Bus 20	: Pd=18.0, Qd=3.0 -> Pd=29.99, Qd=3.00
% INFO    : Bus 21	: Pd=14.0, Qd=8.0 -> Pd=23.32, Qd=8.00
% INFO    : Bus 22	: Pd=10.0, Qd=5.0 -> Pd=16.66, Qd=5.00
% INFO    : Bus 23	: Pd=7.0, Qd=3.0 -> Pd=11.66, Qd=3.00
% INFO    : Bus 24	: Pd=13.0, Qd=0.0 -> Pd=13.00, Qd=0.00
% INFO    : Bus 25	: Pd=0.0, Qd=0.0 -> Pd=0.00, Qd=0.00
% INFO    : Bus 26	: Pd=0.0, Qd=0.0 -> Pd=0.00, Qd=0.00
% INFO    : Bus 27	: Pd=71.0, Qd=13.0 -> Pd=118.29, Qd=13.00
% INFO    : Bus 28	: Pd=17.0, Qd=7.0 -> Pd=28.32, Qd=7.00
% INFO    : Bus 29	: Pd=24.0, Qd=4.0 -> Pd=39.99, Qd=4.00
% INFO    : Bus 30	: Pd=0.0, Qd=0.0 -> Pd=0.00, Qd=0.00
% INFO    : Bus 31	: Pd=43.0, Qd=27.0 -> Pd=71.64, Qd=27.00
% INFO    : Bus 32	: Pd=59.0, Qd=23.0 -> Pd=98.30, Qd=23.00
% INFO    : Bus 33	: Pd=23.0, Qd=9.0 -> Pd=38.32, Qd=9.00
% INFO    : Bus 34	: Pd=59.0, Qd=26.0 -> Pd=98.30, Qd=26.00
% INFO    : Bus 35	: Pd=33.0, Qd=9.0 -> Pd=54.98, Qd=9.00
% INFO    : Bus 36	: Pd=31.0, Qd=17.0 -> Pd=51.65, Qd=17.00
% INFO    : Bus 37	: Pd=0.0, Qd=0.0 -> Pd=0.00, Qd=0.00
% INFO    : Bus 38	: Pd=0.0, Qd=0.0 -> Pd=0.00, Qd=0.00
% INFO    : Bus 39	: Pd=27.0, Qd=11.0 -> Pd=44.98, Qd=11.00
% INFO    : Bus 40	: Pd=66.0, Qd=23.0 -> Pd=109.96, Qd=23.00
% INFO    : Bus 41	: Pd=37.0, Qd=10.0 -> Pd=61.64, Qd=10.00
% INFO    : Bus 42	: Pd=96.0, Qd=23.0 -> Pd=159.94, Qd=23.00
% INFO    : Bus 43	: Pd=18.0, Qd=7.0 -> Pd=29.99, Qd=7.00
% INFO    : Bus 44	: Pd=16.0, Qd=8.0 -> Pd=26.66, Qd=8.00
% INFO    : Bus 45	: Pd=53.0, Qd=22.0 -> Pd=88.30, Qd=22.00
% INFO    : Bus 46	: Pd=28.0, Qd=10.0 -> Pd=46.65, Qd=10.00
% INFO    : Bus 47	: Pd=34.0, Qd=0.0 -> Pd=34.00, Qd=0.00
% INFO    : Bus 48	: Pd=20.0, Qd=11.0 -> Pd=33.32, Qd=11.00
% INFO    : Bus 49	: Pd=87.0, Qd=30.0 -> Pd=144.95, Qd=30.00
% INFO    : Bus 50	: Pd=17.0, Qd=4.0 -> Pd=28.32, Qd=4.00
% INFO    : Bus 51	: Pd=17.0, Qd=8.0 -> Pd=28.32, Qd=8.00
% INFO    : Bus 52	: Pd=18.0, Qd=5.0 -> Pd=29.99, Qd=5.00
% INFO    : Bus 53	: Pd=23.0, Qd=11.0 -> Pd=38.32, Qd=11.00
% INFO    : Bus 54	: Pd=113.0, Qd=32.0 -> Pd=188.26, Qd=32.00
% INFO    : Bus 55	: Pd=63.0, Qd=22.0 -> Pd=104.96, Qd=22.00
% INFO    : Bus 56	: Pd=84.0, Qd=18.0 -> Pd=139.95, Qd=18.00
% INFO    : Bus 57	: Pd=12.0, Qd=3.0 -> Pd=19.99, Qd=3.00
% INFO    : Bus 58	: Pd=12.0, Qd=3.0 -> Pd=19.99, Qd=3.00
% INFO    : Bus 59	: Pd=277.0, Qd=113.0 -> Pd=461.50, Qd=113.00
% INFO    : Bus 60	: Pd=78.0, Qd=3.0 -> Pd=129.95, Qd=3.00
% INFO    : Bus 61	: Pd=0.0, Qd=0.0 -> Pd=0.00, Qd=0.00
% INFO    : Bus 62	: Pd=77.0, Qd=14.0 -> Pd=128.29, Qd=14.00
% INFO    : Bus 63	: Pd=0.0, Qd=0.0 -> Pd=0.00, Qd=0.00
% INFO    : Bus 64	: Pd=0.0, Qd=0.0 -> Pd=0.00, Qd=0.00
% INFO    : Bus 65	: Pd=0.0, Qd=0.0 -> Pd=0.00, Qd=0.00
% INFO    : Bus 66	: Pd=39.0, Qd=18.0 -> Pd=64.98, Qd=18.00
% INFO    : Bus 67	: Pd=28.0, Qd=7.0 -> Pd=46.65, Qd=7.00
% INFO    : Bus 68	: Pd=0.0, Qd=0.0 -> Pd=0.00, Qd=0.00
% INFO    : Bus 69	: Pd=0.0, Qd=0.0 -> Pd=0.00, Qd=0.00
% INFO    : Bus 70	: Pd=66.0, Qd=20.0 -> Pd=109.96, Qd=20.00
% INFO    : Bus 71	: Pd=0.0, Qd=0.0 -> Pd=0.00, Qd=0.00
% INFO    : Bus 72	: Pd=12.0, Qd=0.0 -> Pd=12.00, Qd=0.00
% INFO    : Bus 73	: Pd=6.0, Qd=0.0 -> Pd=6.00, Qd=0.00
% INFO    : Bus 74	: Pd=68.0, Qd=27.0 -> Pd=113.29, Qd=27.00
% INFO    : Bus 75	: Pd=47.0, Qd=11.0 -> Pd=78.30, Qd=11.00
% INFO    : Bus 76	: Pd=68.0, Qd=36.0 -> Pd=113.29, Qd=36.00
% INFO    : Bus 77	: Pd=61.0, Qd=28.0 -> Pd=101.63, Qd=28.00
% INFO    : Bus 78	: Pd=71.0, Qd=26.0 -> Pd=118.29, Qd=26.00
% INFO    : Bus 79	: Pd=39.0, Qd=32.0 -> Pd=64.98, Qd=32.00
% INFO    : Bus 80	: Pd=130.0, Qd=26.0 -> Pd=216.59, Qd=26.00
% INFO    : Bus 81	: Pd=0.0, Qd=0.0 -> Pd=0.00, Qd=0.00
% INFO    : Bus 82	: Pd=54.0, Qd=27.0 -> Pd=89.97, Qd=27.00
% INFO    : Bus 83	: Pd=20.0, Qd=10.0 -> Pd=33.32, Qd=10.00
% INFO    : Bus 84	: Pd=11.0, Qd=7.0 -> Pd=18.33, Qd=7.00
% INFO    : Bus 85	: Pd=24.0, Qd=15.0 -> Pd=39.99, Qd=15.00
% INFO    : Bus 86	: Pd=21.0, Qd=10.0 -> Pd=34.99, Qd=10.00
% INFO    : Bus 87	: Pd=0.0, Qd=0.0 -> Pd=0.00, Qd=0.00
% INFO    : Bus 88	: Pd=48.0, Qd=10.0 -> Pd=79.97, Qd=10.00
% INFO    : Bus 89	: Pd=0.0, Qd=0.0 -> Pd=0.00, Qd=0.00
% INFO    : Bus 90	: Pd=163.0, Qd=42.0 -> Pd=271.57, Qd=42.00
% INFO    : Bus 91	: Pd=10.0, Qd=0.0 -> Pd=10.00, Qd=0.00
% INFO    : Bus 92	: Pd=65.0, Qd=10.0 -> Pd=108.29, Qd=10.00
% INFO    : Bus 93	: Pd=12.0, Qd=7.0 -> Pd=19.99, Qd=7.00
% INFO    : Bus 94	: Pd=30.0, Qd=16.0 -> Pd=49.98, Qd=16.00
% INFO    : Bus 95	: Pd=42.0, Qd=31.0 -> Pd=69.97, Qd=31.00
% INFO    : Bus 96	: Pd=38.0, Qd=15.0 -> Pd=63.31, Qd=15.00
% INFO    : Bus 97	: Pd=15.0, Qd=9.0 -> Pd=24.99, Qd=9.00
% INFO    : Bus 98	: Pd=34.0, Qd=8.0 -> Pd=56.65, Qd=8.00
% INFO    : Bus 99	: Pd=42.0, Qd=0.0 -> Pd=42.00, Qd=0.00
% INFO    : Bus 100	: Pd=37.0, Qd=18.0 -> Pd=61.64, Qd=18.00
% INFO    : Bus 101	: Pd=22.0, Qd=15.0 -> Pd=36.65, Qd=15.00
% INFO    : Bus 102	: Pd=5.0, Qd=3.0 -> Pd=8.33, Qd=3.00
% INFO    : Bus 103	: Pd=23.0, Qd=16.0 -> Pd=38.32, Qd=16.00
% INFO    : Bus 104	: Pd=38.0, Qd=25.0 -> Pd=63.31, Qd=25.00
% INFO    : Bus 105	: Pd=31.0, Qd=26.0 -> Pd=51.65, Qd=26.00
% INFO    : Bus 106	: Pd=43.0, Qd=16.0 -> Pd=71.64, Qd=16.00
% INFO    : Bus 107	: Pd=50.0, Qd=12.0 -> Pd=83.30, Qd=12.00
% INFO    : Bus 108	: Pd=2.0, Qd=1.0 -> Pd=3.33, Qd=1.00
% INFO    : Bus 109	: Pd=8.0, Qd=3.0 -> Pd=13.33, Qd=3.00
% INFO    : Bus 110	: Pd=39.0, Qd=30.0 -> Pd=64.98, Qd=30.00
% INFO    : Bus 111	: Pd=0.0, Qd=0.0 -> Pd=0.00, Qd=0.00
% INFO    : Bus 112	: Pd=68.0, Qd=13.0 -> Pd=113.29, Qd=13.00
% INFO    : Bus 113	: Pd=6.0, Qd=0.0 -> Pd=6.00, Qd=0.00
% INFO    : Bus 114	: Pd=8.0, Qd=3.0 -> Pd=13.33, Qd=3.00
% INFO    : Bus 115	: Pd=22.0, Qd=7.0 -> Pd=36.65, Qd=7.00
% INFO    : Bus 116	: Pd=184.0, Qd=0.0 -> Pd=184.00, Qd=0.00
% INFO    : Bus 117	: Pd=20.0, Qd=8.0 -> Pd=33.32, Qd=8.00
% INFO    : Bus 118	: Pd=33.0, Qd=15.0 -> Pd=54.98, Qd=15.00
% INFO    : 
% INFO    : === Generator Setpoint Replacement Notes ===
% INFO    : Gen at bus 1	: Pg=0.0, Qg=0.0 -> Pg=0.0, Qg=97.0
% INFO    : Gen at bus 4	: Pg=0.0, Qg=0.0 -> Pg=0.0, Qg=180.0
% INFO    : Gen at bus 6	: Pg=0.0, Qg=0.0 -> Pg=0.0, Qg=96.0
% INFO    : Gen at bus 8	: Pg=0.0, Qg=0.0 -> Pg=0.0, Qg=-4.0
% INFO    : Gen at bus 10	: Pg=450.0, Qg=0.0 -> Pg=709.0, Qg=16.0
% INFO    : Gen at bus 12	: Pg=85.0, Qg=0.0 -> Pg=669.0, Qg=-15.0
% INFO    : Gen at bus 15	: Pg=0.0, Qg=0.0 -> Pg=0.0, Qg=-84.0
% INFO    : Gen at bus 18	: Pg=0.0, Qg=0.0 -> Pg=0.0, Qg=92.0
% INFO    : Gen at bus 19	: Pg=0.0, Qg=0.0 -> Pg=0.0, Qg=81.0
% INFO    : Gen at bus 24	: Pg=0.0, Qg=0.0 -> Pg=0.0, Qg=24.0
% INFO    : Gen at bus 25	: Pg=220.0, Qg=0.0 -> Pg=0.0, Qg=127.0
% INFO    : Gen at bus 26	: Pg=314.0, Qg=0.0 -> Pg=388.0, Qg=-196.0
% INFO    : Gen at bus 27	: Pg=0.0, Qg=0.0 -> Pg=0.0, Qg=243.0
% INFO    : Gen at bus 31	: Pg=7.0, Qg=0.0 -> Pg=424.0, Qg=-18.0
% INFO    : Gen at bus 32	: Pg=0.0, Qg=0.0 -> Pg=0.0, Qg=-86.0
% INFO    : Gen at bus 34	: Pg=0.0, Qg=0.0 -> Pg=0.0, Qg=145.0
% INFO    : Gen at bus 36	: Pg=0.0, Qg=0.0 -> Pg=0.0, Qg=62.0
% INFO    : Gen at bus 40	: Pg=0.0, Qg=0.0 -> Pg=0.0, Qg=152.0
% INFO    : Gen at bus 42	: Pg=0.0, Qg=0.0 -> Pg=0.0, Qg=3.0
% INFO    : Gen at bus 46	: Pg=19.0, Qg=0.0 -> Pg=433.0, Qg=-30.0
% INFO    : Gen at bus 49	: Pg=204.0, Qg=0.0 -> Pg=200.0, Qg=252.0
% INFO    : Gen at bus 54	: Pg=48.0, Qg=0.0 -> Pg=275.0, Qg=16.0
% INFO    : Gen at bus 55	: Pg=0.0, Qg=0.0 -> Pg=0.0, Qg=27.0
% INFO    : Gen at bus 56	: Pg=0.0, Qg=0.0 -> Pg=0.0, Qg=19.0
% INFO    : Gen at bus 59	: Pg=155.0, Qg=0.0 -> Pg=657.0, Qg=99.0
% INFO    : Gen at bus 61	: Pg=160.0, Qg=0.0 -> Pg=116.0, Qg=45.0
% INFO    : Gen at bus 62	: Pg=0.0, Qg=0.0 -> Pg=0.0, Qg=4.0
% INFO    : Gen at bus 65	: Pg=391.0, Qg=0.0 -> Pg=1087.0, Qg=-125.0
% INFO    : Gen at bus 66	: Pg=392.0, Qg=0.0 -> Pg=141.0, Qg=-75.0
% INFO    : Gen at bus 69	: Pg=516.4, Qg=0.0 -> Pg=25.0, Qg=-181.0
% INFO    : Gen at bus 70	: Pg=0.0, Qg=0.0 -> Pg=0.0, Qg=264.0
% INFO    : Gen at bus 72	: Pg=0.0, Qg=0.0 -> Pg=0.0, Qg=22.0
% INFO    : Gen at bus 73	: Pg=0.0, Qg=0.0 -> Pg=0.0, Qg=-1.0
% INFO    : Gen at bus 74	: Pg=0.0, Qg=0.0 -> Pg=0.0, Qg=-73.0
% INFO    : Gen at bus 76	: Pg=0.0, Qg=0.0 -> Pg=0.0, Qg=34.0
% INFO    : Gen at bus 77	: Pg=0.0, Qg=0.0 -> Pg=0.0, Qg=171.0
% INFO    : Gen at bus 80	: Pg=477.0, Qg=0.0 -> Pg=278.0, Qg=191.0
% INFO    : Gen at bus 85	: Pg=0.0, Qg=0.0 -> Pg=0.0, Qg=231.0
% INFO    : Gen at bus 87	: Pg=4.0, Qg=0.0 -> Pg=140.0, Qg=5.0
% INFO    : Gen at bus 89	: Pg=607.0, Qg=0.0 -> Pg=681.0, Qg=-112.0
% INFO    : Gen at bus 90	: Pg=0.0, Qg=0.0 -> Pg=0.0, Qg=90.0
% INFO    : Gen at bus 91	: Pg=0.0, Qg=0.0 -> Pg=0.0, Qg=-6.0
% INFO    : Gen at bus 92	: Pg=0.0, Qg=0.0 -> Pg=0.0, Qg=-6.0
% INFO    : Gen at bus 99	: Pg=0.0, Qg=0.0 -> Pg=0.0, Qg=18.0
% INFO    : Gen at bus 100	: Pg=252.0, Qg=0.0 -> Pg=508.0, Qg=-131.0
% INFO    : Gen at bus 103	: Pg=40.0, Qg=0.0 -> Pg=315.0, Qg=-4.0
% INFO    : Gen at bus 104	: Pg=0.0, Qg=0.0 -> Pg=0.0, Qg=69.0
% INFO    : Gen at bus 105	: Pg=0.0, Qg=0.0 -> Pg=0.0, Qg=55.0
% INFO    : Gen at bus 107	: Pg=0.0, Qg=0.0 -> Pg=0.0, Qg=42.0
% INFO    : Gen at bus 110	: Pg=0.0, Qg=0.0 -> Pg=0.0, Qg=71.0
% INFO    : Gen at bus 111	: Pg=36.0, Qg=0.0 -> Pg=106.0, Qg=-15.0
% INFO    : Gen at bus 112	: Pg=0.0, Qg=0.0 -> Pg=0.0, Qg=24.0
% INFO    : Gen at bus 113	: Pg=0.0, Qg=0.0 -> Pg=0.0, Qg=-127.0
% INFO    : Gen at bus 116	: Pg=0.0, Qg=0.0 -> Pg=0.0, Qg=-29.0
% INFO    : 
% INFO    : === Generator Reactive Capacity Atleast Setpoint Value Notes ===
% INFO    : Gen at bus 1	: Qg 97.0, Qmin -5.0, Qmax 15.0 -> Qmin -116.4, Qmax 116.4
% INFO    : Gen at bus 6	: Qg 96.0, Qmin -13.0, Qmax 50.0 -> Qmin -115.2, Qmax 115.2
% INFO    : Gen at bus 15	: Qg -84.0, Qmin -10.0, Qmax 30.0 -> Qmin -100.8, Qmax 100.8
% INFO    : Gen at bus 18	: Qg 92.0, Qmin -16.0, Qmax 50.0 -> Qmin -110.4, Qmax 110.4
% INFO    : Gen at bus 19	: Qg 81.0, Qmin -8.0, Qmax 24.0 -> Qmin -97.2, Qmax 97.2
% INFO    : Gen at bus 25	: Qg 127.0, Qmin -47.0, Qmax 134.0 -> Qmin -152.4, Qmax 134.0
% INFO    : Gen at bus 31	: Qg -18.0, Qmin -12.0, Qmax 12.0 -> Qmin -21.6, Qmax 21.6
% INFO    : Gen at bus 32	: Qg -86.0, Qmin -14.0, Qmax 42.0 -> Qmin -103.2, Qmax 103.2
% INFO    : Gen at bus 34	: Qg 145.0, Qmin -8.0, Qmax 24.0 -> Qmin -174.0, Qmax 174.0
% INFO    : Gen at bus 36	: Qg 62.0, Qmin -8.0, Qmax 24.0 -> Qmin -74.4, Qmax 74.4
% INFO    : Gen at bus 46	: Qg -30.0, Qmin -26.0, Qmax 26.0 -> Qmin -36.0, Qmax 36.0
% INFO    : Gen at bus 49	: Qg 252.0, Qmin -85.0, Qmax 116.0 -> Qmin -302.4, Qmax 302.4
% INFO    : Gen at bus 55	: Qg 27.0, Qmin -8.0, Qmax 23.0 -> Qmin -32.4, Qmax 32.4
% INFO    : Gen at bus 56	: Qg 19.0, Qmin -8.0, Qmax 15.0 -> Qmin -22.8, Qmax 22.8
% INFO    : Gen at bus 59	: Qg 99.0, Qmin -60.0, Qmax 141.0 -> Qmin -118.8, Qmax 141.0
% INFO    : Gen at bus 65	: Qg -125.0, Qmin -67.0, Qmax 200.0 -> Qmin -150.0, Qmax 200.0
% INFO    : Gen at bus 66	: Qg -75.0, Qmin -67.0, Qmax 200.0 -> Qmin -90.0, Qmax 200.0
% INFO    : Gen at bus 70	: Qg 264.0, Qmin -10.0, Qmax 32.0 -> Qmin -316.8, Qmax 316.8
% INFO    : Gen at bus 74	: Qg -73.0, Qmin -6.0, Qmax 9.0 -> Qmin -87.6, Qmax 87.6
% INFO    : Gen at bus 76	: Qg 34.0, Qmin -8.0, Qmax 23.0 -> Qmin -40.8, Qmax 40.8
% INFO    : Gen at bus 77	: Qg 171.0, Qmin -20.0, Qmax 70.0 -> Qmin -205.2, Qmax 205.2
% INFO    : Gen at bus 80	: Qg 191.0, Qmin -165.0, Qmax 280.0 -> Qmin -229.2, Qmax 280.0
% INFO    : Gen at bus 85	: Qg 231.0, Qmin -8.0, Qmax 23.0 -> Qmin -277.2, Qmax 277.2
% INFO    : Gen at bus 87	: Qg 5.0, Qmin -4.0, Qmax 4.0 -> Qmin -6.0, Qmax 6.0
% INFO    : Gen at bus 92	: Qg -6.0, Qmin -3.0, Qmax 9.0 -> Qmin -7.2, Qmax 9.0
% INFO    : Gen at bus 100	: Qg -131.0, Qmin -50.0, Qmax 151.0 -> Qmin -157.2, Qmax 151.0
% INFO    : Gen at bus 104	: Qg 69.0, Qmin -8.0, Qmax 23.0 -> Qmin -82.8, Qmax 82.8
% INFO    : Gen at bus 105	: Qg 55.0, Qmin -8.0, Qmax 23.0 -> Qmin -66.0, Qmax 66.0
% INFO    : Gen at bus 110	: Qg 71.0, Qmin -8.0, Qmax 23.0 -> Qmin -85.2, Qmax 85.2
% INFO    : Gen at bus 113	: Qg -127.0, Qmin -100.0, Qmax 200.0 -> Qmin -152.4, Qmax 200.0
% INFO    : 
% INFO    : === Generator Classification Notes ===
% INFO    : PEL    3   -     9.86
% INFO    : NUC    1   -     3.89
% INFO    : SYNC   35  -     0.00
% INFO    : COW    7   -    47.94
% INFO    : NG     8   -    38.31
% INFO    : 
% INFO    : === Generator Active Capacity Stat Model Notes ===
% INFO    : Gen at bus 1 - SYNC	: Pg=0.0, Pmax=0.0 -> Pmax=0   samples: 0
% INFO    : Gen at bus 4 - SYNC	: Pg=0.0, Pmax=0.0 -> Pmax=0   samples: 0
% INFO    : Gen at bus 6 - SYNC	: Pg=0.0, Pmax=0.0 -> Pmax=0   samples: 0
% INFO    : Gen at bus 8 - SYNC	: Pg=0.0, Pmax=0.0 -> Pmax=0   samples: 0
% INFO    : Gen at bus 10 - COW	: Pg=709.0, Pmax=663.0 -> Pmax=1027   samples: 7
% WARNING : Failed to find a generator capacity within (669.0-3345.0) after 100 samples, using percent increase model
% INFO    : Gen at bus 12 - NG	: Pg=669.0, Pmax=287.0 -> Pmax=755   samples: 100
% INFO    : Gen at bus 15 - SYNC	: Pg=0.0, Pmax=0.0 -> Pmax=0   samples: 0
% INFO    : Gen at bus 18 - SYNC	: Pg=0.0, Pmax=0.0 -> Pmax=0   samples: 0
% INFO    : Gen at bus 19 - SYNC	: Pg=0.0, Pmax=0.0 -> Pmax=0   samples: 0
% INFO    : Gen at bus 24 - SYNC	: Pg=0.0, Pmax=0.0 -> Pmax=0   samples: 0
% INFO    : Gen at bus 25 - NG	: Pg=0.0, Pmax=267.0 -> Pmax=87   samples: 1
% INFO    : Gen at bus 26 - COW	: Pg=388.0, Pmax=451.0 -> Pmax=1316   samples: 3
% INFO    : Gen at bus 27 - SYNC	: Pg=0.0, Pmax=0.0 -> Pmax=0   samples: 0
% WARNING : Failed to find a generator capacity within (424.0-2120.0) after 100 samples, using percent increase model
% INFO    : Gen at bus 31 - PEL	: Pg=424.0, Pmax=23.0 -> Pmax=492   samples: 100
% INFO    : Gen at bus 32 - SYNC	: Pg=0.0, Pmax=0.0 -> Pmax=0   samples: 0
% INFO    : Gen at bus 34 - SYNC	: Pg=0.0, Pmax=0.0 -> Pmax=0   samples: 0
% INFO    : Gen at bus 36 - SYNC	: Pg=0.0, Pmax=0.0 -> Pmax=0   samples: 0
% INFO    : Gen at bus 40 - SYNC	: Pg=0.0, Pmax=0.0 -> Pmax=0   samples: 0
% INFO    : Gen at bus 42 - SYNC	: Pg=0.0, Pmax=0.0 -> Pmax=0   samples: 0
% INFO    : Gen at bus 46 - COW	: Pg=433.0, Pmax=51.0 -> Pmax=543   samples: 1
% INFO    : Gen at bus 49 - NG	: Pg=200.0, Pmax=232.0 -> Pmax=381   samples: 6
% INFO    : Gen at bus 54 - NG	: Pg=275.0, Pmax=150.0 -> Pmax=494   samples: 5
% INFO    : Gen at bus 55 - SYNC	: Pg=0.0, Pmax=0.0 -> Pmax=0   samples: 0
% INFO    : Gen at bus 56 - SYNC	: Pg=0.0, Pmax=0.0 -> Pmax=0   samples: 0
% INFO    : Gen at bus 59 - NG	: Pg=657.0, Pmax=282.0 -> Pmax=734   samples: 61
% INFO    : Gen at bus 61 - NG	: Pg=116.0, Pmax=251.0 -> Pmax=379   samples: 1
% INFO    : Gen at bus 62 - SYNC	: Pg=0.0, Pmax=0.0 -> Pmax=0   samples: 0
% WARNING : Failed to find a generator capacity within (1087.0-5435.0) after 100 samples, using percent increase model
% INFO    : Gen at bus 65 - COW	: Pg=1087.0, Pmax=608.0 -> Pmax=1179   samples: 100
% INFO    : Gen at bus 66 - PEL	: Pg=141.0, Pmax=865.0 -> Pmax=200   samples: 17
% INFO    : Gen at bus 69 - COW	: Pg=25.0, Pmax=881.0 -> Pmax=124   samples: 6
% INFO    : Gen at bus 70 - SYNC	: Pg=0.0, Pmax=0.0 -> Pmax=0   samples: 0
% INFO    : Gen at bus 72 - SYNC	: Pg=0.0, Pmax=0.0 -> Pmax=0   samples: 0
% INFO    : Gen at bus 73 - SYNC	: Pg=0.0, Pmax=0.0 -> Pmax=0   samples: 0
% INFO    : Gen at bus 74 - SYNC	: Pg=0.0, Pmax=0.0 -> Pmax=0   samples: 0
% INFO    : Gen at bus 76 - SYNC	: Pg=0.0, Pmax=0.0 -> Pmax=0   samples: 0
% INFO    : Gen at bus 77 - SYNC	: Pg=0.0, Pmax=0.0 -> Pmax=0   samples: 0
% INFO    : Gen at bus 80 - NUC	: Pg=278.0, Pmax=739.0 -> Pmax=1022   samples: 1
% INFO    : Gen at bus 85 - SYNC	: Pg=0.0, Pmax=0.0 -> Pmax=0   samples: 0
% INFO    : Gen at bus 87 - PEL	: Pg=140.0, Pmax=7.0 -> Pmax=157   samples: 51
% INFO    : Gen at bus 89 - COW	: Pg=681.0, Pmax=845.0 -> Pmax=902   samples: 11
% INFO    : Gen at bus 90 - SYNC	: Pg=0.0, Pmax=0.0 -> Pmax=0   samples: 0
% INFO    : Gen at bus 91 - SYNC	: Pg=0.0, Pmax=0.0 -> Pmax=0   samples: 0
% INFO    : Gen at bus 92 - SYNC	: Pg=0.0, Pmax=0.0 -> Pmax=0   samples: 0
% INFO    : Gen at bus 99 - SYNC	: Pg=0.0, Pmax=0.0 -> Pmax=0   samples: 0
% WARNING : Failed to find a generator capacity within (508.0-2540.0) after 100 samples, using percent increase model
% INFO    : Gen at bus 100 - NG	: Pg=508.0, Pmax=301.0 -> Pmax=573   samples: 100
% INFO    : Gen at bus 103 - NG	: Pg=315.0, Pmax=98.0 -> Pmax=460   samples: 29
% INFO    : Gen at bus 104 - SYNC	: Pg=0.0, Pmax=0.0 -> Pmax=0   samples: 0
% INFO    : Gen at bus 105 - SYNC	: Pg=0.0, Pmax=0.0 -> Pmax=0   samples: 0
% INFO    : Gen at bus 107 - SYNC	: Pg=0.0, Pmax=0.0 -> Pmax=0   samples: 0
% INFO    : Gen at bus 110 - SYNC	: Pg=0.0, Pmax=0.0 -> Pmax=0   samples: 0
% INFO    : Gen at bus 111 - COW	: Pg=106.0, Pmax=133.0 -> Pmax=182   samples: 4
% INFO    : Gen at bus 112 - SYNC	: Pg=0.0, Pmax=0.0 -> Pmax=0   samples: 0
% INFO    : Gen at bus 113 - SYNC	: Pg=0.0, Pmax=0.0 -> Pmax=0   samples: 0
% INFO    : Gen at bus 116 - SYNC	: Pg=0.0, Pmax=0.0 -> Pmax=0   samples: 0
% INFO    : 
% INFO    : === Generator Active Capacity LB Model Notes ===
% INFO    : 
% INFO    : === Generator Reactive Capacity Atleast Max 50 Percent Active Model Notes ===
% INFO    : Gen at bus 10 - COW	: Pmax 1027.0, Qmin -147.0, Qmax 200.0 -> Qmin -514.0, Qmax 514.0
% INFO    : Gen at bus 12 - NG	: Pmax 755.0, Qmin -35.0, Qmax 120.0 -> Qmin -378.0, Qmax 378.0
% INFO    : Gen at bus 26 - COW	: Pmax 1316.0, Qmin -226.0, Qmax 226.0 -> Qmin -658.0, Qmax 658.0
% INFO    : Gen at bus 31 - PEL	: Pmax 492.0, Qmin -21.6, Qmax 21.6 -> Qmin -246.0, Qmax 246.0
% INFO    : Gen at bus 46 - COW	: Pmax 543.0, Qmin -36.0, Qmax 36.0 -> Qmin -272.0, Qmax 272.0
% INFO    : Gen at bus 54 - NG	: Pmax 494.0, Qmin -75.0, Qmax 75.0 -> Qmin -247.0, Qmax 247.0
% INFO    : Gen at bus 59 - NG	: Pmax 734.0, Qmin -118.8, Qmax 141.0 -> Qmin -367.0, Qmax 367.0
% INFO    : Gen at bus 61 - NG	: Pmax 379.0, Qmin -100.0, Qmax 126.0 -> Qmin -190.0, Qmax 190.0
% INFO    : Gen at bus 65 - COW	: Pmax 1179.0, Qmin -150.0, Qmax 200.0 -> Qmin -590.0, Qmax 590.0
% INFO    : Gen at bus 66 - PEL	: Pmax 200.0, Qmin -90.0, Qmax 200.0 -> Qmin -100.0, Qmax 200.0
% INFO    : Gen at bus 80 - NUC	: Pmax 1022.0, Qmin -229.2, Qmax 280.0 -> Qmin -511.0, Qmax 511.0
% INFO    : Gen at bus 87 - PEL	: Pmax 157.0, Qmin -6.0, Qmax 6.0 -> Qmin -79.0, Qmax 79.0
% INFO    : Gen at bus 89 - COW	: Pmax 902.0, Qmin -210.0, Qmax 300.0 -> Qmin -451.0, Qmax 451.0
% INFO    : Gen at bus 100 - NG	: Pmax 573.0, Qmin -157.2, Qmax 151.0 -> Qmin -287.0, Qmax 287.0
% INFO    : Gen at bus 103 - NG	: Pmax 460.0, Qmin -15.0, Qmax 40.0 -> Qmin -230.0, Qmax 230.0
% INFO    : Gen at bus 111 - COW	: Pmax 182.0, Qmin -67.0, Qmax 67.0 -> Qmin -91.0, Qmax 91.0
% INFO    : 
% INFO    : === Generator Active Cost Stat Model Notes ===
% INFO    : Updated Generator Cost: SYNC - 0.0 0.0 0.0 -> 0 0.0 0
% INFO    : Updated Generator Cost: SYNC - 0.0 0.0 0.0 -> 0 0.0 0
% INFO    : Updated Generator Cost: SYNC - 0.0 0.0 0.0 -> 0 0.0 0
% INFO    : Updated Generator Cost: SYNC - 0.0 0.0 0.0 -> 0 0.0 0
% INFO    : Updated Generator Cost: COW - 0.0 1.463389 0.0 -> 0 0.851211910901 0
% INFO    : Updated Generator Cost: NG - 0.0 0.889054 0.0 -> 0 1.63661092026 0
% INFO    : Updated Generator Cost: SYNC - 0.0 0.0 0.0 -> 0 0.0 0
% INFO    : Updated Generator Cost: SYNC - 0.0 0.0 0.0 -> 0 0.0 0
% INFO    : Updated Generator Cost: SYNC - 0.0 0.0 0.0 -> 0 0.0 0
% INFO    : Updated Generator Cost: SYNC - 0.0 0.0 0.0 -> 0 0.0 0
% INFO    : Updated Generator Cost: NG - 0.0 0.929688 0.0 -> 0 1.25035726846 0
% INFO    : Updated Generator Cost: COW - 0.0 1.118121 0.0 -> 0 1.10882159219 0
% INFO    : Updated Generator Cost: SYNC - 0.0 0.0 0.0 -> 0 0.0 0
% INFO    : Updated Generator Cost: PEL - 0.0 0.814446 0.0 -> 0 7.62536298916 0
% INFO    : Updated Generator Cost: SYNC - 0.0 0.0 0.0 -> 0 0.0 0
% INFO    : Updated Generator Cost: SYNC - 0.0 0.0 0.0 -> 0 0.0 0
% INFO    : Updated Generator Cost: SYNC - 0.0 0.0 0.0 -> 0 0.0 0
% INFO    : Updated Generator Cost: SYNC - 0.0 0.0 0.0 -> 0 0.0 0
% INFO    : Updated Generator Cost: SYNC - 0.0 0.0 0.0 -> 0 0.0 0
% INFO    : Updated Generator Cost: COW - 0.0 1.513792 0.0 -> 0 1.25094662277 0
% INFO    : Updated Generator Cost: NG - 0.0 1.071413 0.0 -> 0 1.09904963301 0
% INFO    : Updated Generator Cost: NG - 0.0 1.324712 0.0 -> 0 0.969763342686 0
% INFO    : Updated Generator Cost: SYNC - 0.0 0.0 0.0 -> 0 0.0 0
% INFO    : Updated Generator Cost: SYNC - 0.0 0.0 0.0 -> 0 0.0 0
% INFO    : Updated Generator Cost: NG - 0.0 1.426207 0.0 -> 0 1.07633778162 0
% INFO    : Updated Generator Cost: NG - 0.0 1.245208 0.0 -> 0 0.998973002812 0
% INFO    : Updated Generator Cost: SYNC - 0.0 0.0 0.0 -> 0 0.0 0
% INFO    : Updated Generator Cost: COW - 0.0 0.969762 0.0 -> 0 0.735179684033 0
% INFO    : Updated Generator Cost: PEL - 0.0 0.865713 0.0 -> 0 7.32460783908 0
% INFO    : Updated Generator Cost: COW - 0.0 0.518513 0.0 -> 0 1.24670871869 0
% INFO    : Updated Generator Cost: SYNC - 0.0 0.0 0.0 -> 0 0.0 0
% INFO    : Updated Generator Cost: SYNC - 0.0 0.0 0.0 -> 0 0.0 0
% INFO    : Updated Generator Cost: SYNC - 0.0 0.0 0.0 -> 0 0.0 0
% INFO    : Updated Generator Cost: SYNC - 0.0 0.0 0.0 -> 0 0.0 0
% INFO    : Updated Generator Cost: SYNC - 0.0 0.0 0.0 -> 0 0.0 0
% INFO    : Updated Generator Cost: SYNC - 0.0 0.0 0.0 -> 0 0.0 0
% INFO    : Updated Generator Cost: NUC - 0.0 1.006636 0.0 -> 0 0.19798965834 0
% INFO    : Updated Generator Cost: SYNC - 0.0 0.0 0.0 -> 0 0.0 0
% INFO    : Updated Generator Cost: PEL - 0.0 1.381184 0.0 -> 0 6.78297150148 0
% INFO    : Updated Generator Cost: COW - 0.0 0.793496 0.0 -> 0 0.531115324064 0
% INFO    : Updated Generator Cost: SYNC - 0.0 0.0 0.0 -> 0 0.0 0
% INFO    : Updated Generator Cost: SYNC - 0.0 0.0 0.0 -> 0 0.0 0
% INFO    : Updated Generator Cost: SYNC - 0.0 0.0 0.0 -> 0 0.0 0
% INFO    : Updated Generator Cost: SYNC - 0.0 0.0 0.0 -> 0 0.0 0
% INFO    : Updated Generator Cost: NG - 0.0 1.066562 0.0 -> 0 0.906219200747 0
% INFO    : Updated Generator Cost: NG - 0.0 0.691193 0.0 -> 0 1.15171325711 0
% INFO    : Updated Generator Cost: SYNC - 0.0 0.0 0.0 -> 0 0.0 0
...